         NASA-GLENN CHEMICAL EQUILIBRIUM PROGRAM CEA2, FEBRUARY 5, 2004
                   BY  BONNIE MCBRIDE AND SANFORD GORDON
      REFS: NASA RP-1311, PART I, 1994 AND NASA RP-1311, PART II, 1996

 *******************************************************************************

  
 ### CEA analysis performed on Tue 12-Oct-2021 14:55:08
  
 # Problem Type: "Rocket" (Infinite Area Combustor)
  
 prob case=_______________1862 ro frozen
  
 # Pressure (24 values):
 p,atm= 25, 26, 27, 28, 29, 30, 31, 32, 33, 34, 35, 36, 37, 38, 39, 40, 41, 42, 4
 3, 44, 45, 46, 47, 48
 # Supersonic Area Ratio (1 value):
 supar= 4
  
 # Oxidizer/Fuel Wt. ratio (31 values):
 o/f= 6.3, 6.5, 6.7, 6.9, 7.1, 7.3, 7.5, 7.7, 7.9, 8.1, 8.3, 8.5, 8.7, 8.9, 9.1, 
 9.3, 9.5, 9.7, 9.9, 10.1, 10.3, 10.5, 10.7, 10.9, 11
  
 # You selected the following fuels and oxidizers:
 reac
 fuel paraffin          wt%=100.0000
 oxid N2O               wt%=100.0000
  
 # You selected these options for output:
 # short version of output
 output short
 # Proportions of any products will be expressed as Mass Fractions.
 output massf
 # Heat will be expressed as siunits
 output siunits
  
 # Input prepared by this script:/var/www/sites/cearun.grc.nasa.gov/cgi-bin/CEARU
 N/prepareInputFile.cgi
  
 ### IMPORTANT:  The following line is the end of your CEA input file!
 end

           THEORETICAL ROCKET PERFORMANCE ASSUMING FROZEN COMPOSITION

 Pin =   367.4 PSIA
 CASE = _______________

             REACTANT                    WT FRACTION      ENERGY      TEMP
                                          (SEE NOTE)     KJ/KG-MOL      K  
 FUEL        paraffin                     1.0000000  -1860600.000    298.150
 OXIDANT     N2O                          1.0000000         0.000      0.000

 O/F=    6.30000  %FUEL= 13.698630  R,EQ.RATIO= 1.450560  PHI,EQ.RATIO= 1.450560

                 CHAMBER   THROAT     EXIT
 Pinf/P            1.0000   1.8035   26.138
 P, BAR            25.331   14.045  0.96913
 T, K             2584.65  2297.14  1312.18
 RHO, KG/CU M    3.0912 0 1.9285 0 2.3295-1
 H, KJ/KG         -254.43  -710.36 -2207.33
 U, KJ/KG        -1073.88 -1438.66 -2623.35
 G, KJ/KG        -25031.4 -22731.1 -14786.1
 S, KJ/(KG)(K)     9.5862   9.5862   9.5862

 M, (1/n)          26.225   26.225   26.225
 Cp, KJ/(KG)(K)    1.5957   1.5750   1.4441
 GAMMAs            1.2479   1.2520   1.2813
 SON VEL,M/SEC     1011.3    954.9    730.1
 MACH NUMBER        0.000    1.000    2.707

 PERFORMANCE PARAMETERS

 Ae/At                      1.0000   4.0000
 CSTAR, M/SEC               1375.5   1375.5
 CF                         0.6942   1.4367
 Ivac, M/SEC                1717.6   2186.8
 Isp, M/SEC                  954.9   1976.3

 MASS FRACTIONS

 *CO             0.18946   *CO2            0.14164   *H              0.00006
 *H2             0.00418   H2O             0.11433   *NO             0.00029
 *N2             0.54916   *O              0.00001   *OH             0.00083
 *O2             0.00004

  * THERMODYNAMIC PROPERTIES FITTED TO 20000.K

 NOTE. WEIGHT FRACTION OF FUEL IN TOTAL FUELS AND OF OXIDANT IN TOTAL OXIDANTS

           THEORETICAL ROCKET PERFORMANCE ASSUMING FROZEN COMPOSITION

 Pin =   382.1 PSIA
 CASE = _______________

             REACTANT                    WT FRACTION      ENERGY      TEMP
                                          (SEE NOTE)     KJ/KG-MOL      K  
 FUEL        paraffin                     1.0000000  -1860600.000    298.150
 OXIDANT     N2O                          1.0000000         0.000      0.000

 O/F=    6.30000  %FUEL= 13.698630  R,EQ.RATIO= 1.450560  PHI,EQ.RATIO= 1.450560

                 CHAMBER   THROAT     EXIT
 Pinf/P            1.0000   1.8035   26.137
 P, BAR            26.345   14.607   1.0079
 T, K             2585.03  2297.49  1312.42
 RHO, KG/CU M    3.2145 0 2.0054 0 2.4224-1
 H, KJ/KG         -254.43  -710.41 -2207.57
 U, KJ/KG        -1073.98 -1438.79 -2623.65
 G, KJ/KG        -25002.8 -22705.9 -14772.3
 S, KJ/(KG)(K)     9.5737   9.5737   9.5737

 M, (1/n)          26.226   26.226   26.226
 Cp, KJ/(KG)(K)    1.5958   1.5750   1.4442
 GAMMAs            1.2479   1.2520   1.2813
 SON VEL,M/SEC     1011.3    955.0    730.1
 MACH NUMBER        0.000    1.000    2.707

 PERFORMANCE PARAMETERS

 Ae/At                      1.0000   4.0000
 CSTAR, M/SEC               1375.6   1375.6
 CF                         0.6942   1.4367
 Ivac, M/SEC                1717.7   2187.0
 Isp, M/SEC                  955.0   1976.4

 MASS FRACTIONS

 *CO             0.18945   *CO2            0.14164   *H              0.00006
 *H2             0.00418   H2O             0.11434   *NO             0.00028
 *N2             0.54916   *O              0.00001   *OH             0.00081
 *O2             0.00003

  * THERMODYNAMIC PROPERTIES FITTED TO 20000.K

 NOTE. WEIGHT FRACTION OF FUEL IN TOTAL FUELS AND OF OXIDANT IN TOTAL OXIDANTS

           THEORETICAL ROCKET PERFORMANCE ASSUMING FROZEN COMPOSITION

 Pin =   396.8 PSIA
 CASE = _______________

             REACTANT                    WT FRACTION      ENERGY      TEMP
                                          (SEE NOTE)     KJ/KG-MOL      K  
 FUEL        paraffin                     1.0000000  -1860600.000    298.150
 OXIDANT     N2O                          1.0000000         0.000      0.000

 O/F=    6.30000  %FUEL= 13.698630  R,EQ.RATIO= 1.450560  PHI,EQ.RATIO= 1.450560

                 CHAMBER   THROAT     EXIT
 Pinf/P            1.0000   1.8035   26.136
 P, BAR            27.358   15.169   1.0467
 T, K             2585.38  2297.82  1312.65
 RHO, KG/CU M    3.3378 0 2.0823 0 2.5153-1
 H, KJ/KG         -254.43  -710.45 -2207.79
 U, KJ/KG        -1074.06 -1438.92 -2623.94
 G, KJ/KG        -24975.2 -22681.6 -14759.1
 S, KJ/(KG)(K)     9.5618   9.5618   9.5618

 M, (1/n)          26.226   26.226   26.226
 Cp, KJ/(KG)(K)    1.5958   1.5750   1.4442
 GAMMAs            1.2479   1.2520   1.2813
 SON VEL,M/SEC     1011.4    955.0    730.2
 MACH NUMBER        0.000    1.000    2.707

 PERFORMANCE PARAMETERS

 Ae/At                      1.0000   4.0000
 CSTAR, M/SEC               1375.7   1375.7
 CF                         0.6942   1.4367
 Ivac, M/SEC                1717.8   2187.1
 Isp, M/SEC                  955.0   1976.5

 MASS FRACTIONS

 *CO             0.18945   *CO2            0.14165   *H              0.00006
 *H2             0.00418   H2O             0.11436   *NO             0.00028
 *N2             0.54916   *O              0.00001   *OH             0.00080
 *O2             0.00003

  * THERMODYNAMIC PROPERTIES FITTED TO 20000.K

 NOTE. WEIGHT FRACTION OF FUEL IN TOTAL FUELS AND OF OXIDANT IN TOTAL OXIDANTS

           THEORETICAL ROCKET PERFORMANCE ASSUMING FROZEN COMPOSITION

 Pin =   411.5 PSIA
 CASE = _______________

             REACTANT                    WT FRACTION      ENERGY      TEMP
                                          (SEE NOTE)     KJ/KG-MOL      K  
 FUEL        paraffin                     1.0000000  -1860600.000    298.150
 OXIDANT     N2O                          1.0000000         0.000      0.000

 O/F=    6.30000  %FUEL= 13.698630  R,EQ.RATIO= 1.450560  PHI,EQ.RATIO= 1.450560

                 CHAMBER   THROAT     EXIT
 Pinf/P            1.0000   1.8035   26.136
 P, BAR            28.371   15.731   1.0855
 T, K             2585.72  2298.13  1312.87
 RHO, KG/CU M    3.4611 0 2.1592 0 2.6082-1
 H, KJ/KG         -254.43  -710.50 -2208.00
 U, KJ/KG        -1074.15 -1439.05 -2624.21
 G, KJ/KG        -24948.6 -22658.2 -14746.2
 S, KJ/(KG)(K)     9.5502   9.5502   9.5502

 M, (1/n)          26.227   26.227   26.227
 Cp, KJ/(KG)(K)    1.5958   1.5751   1.4443
 GAMMAs            1.2479   1.2520   1.2812
 SON VEL,M/SEC     1011.4    955.1    730.2
 MACH NUMBER        0.000    1.000    2.707

 PERFORMANCE PARAMETERS

 Ae/At                      1.0000   4.0000
 CSTAR, M/SEC               1375.8   1375.8
 CF                         0.6942   1.4367
 Ivac, M/SEC                1717.9   2187.2
 Isp, M/SEC                  955.1   1976.7

 MASS FRACTIONS

 *CO             0.18945   *CO2            0.14165   *H              0.00006
 *H2             0.00418   H2O             0.11438   *NO             0.00027
 *N2             0.54916   *O              0.00001   *OH             0.00079
 *O2             0.00003

  * THERMODYNAMIC PROPERTIES FITTED TO 20000.K

 NOTE. WEIGHT FRACTION OF FUEL IN TOTAL FUELS AND OF OXIDANT IN TOTAL OXIDANTS

           THEORETICAL ROCKET PERFORMANCE ASSUMING FROZEN COMPOSITION

 Pin =   426.2 PSIA
 CASE = _______________

             REACTANT                    WT FRACTION      ENERGY      TEMP
                                          (SEE NOTE)     KJ/KG-MOL      K  
 FUEL        paraffin                     1.0000000  -1860600.000    298.150
 OXIDANT     N2O                          1.0000000         0.000      0.000

 O/F=    6.30000  %FUEL= 13.698630  R,EQ.RATIO= 1.450560  PHI,EQ.RATIO= 1.450560

                 CHAMBER   THROAT     EXIT
 Pinf/P            1.0000   1.8035   26.135
 P, BAR            29.384   16.293   1.1243
 T, K             2586.04  2298.42  1313.08
 RHO, KG/CU M    3.5843 0 2.2361 0 2.7010-1
 H, KJ/KG         -254.43  -710.54 -2208.20
 U, KJ/KG        -1074.23 -1439.16 -2624.46
 G, KJ/KG        -24922.9 -22635.5 -14733.8
 S, KJ/(KG)(K)     9.5391   9.5391   9.5391

 M, (1/n)          26.228   26.228   26.228
 Cp, KJ/(KG)(K)    1.5958   1.5751   1.4443
 GAMMAs            1.2479   1.2520   1.2812
 SON VEL,M/SEC     1011.4    955.1    730.3
 MACH NUMBER        0.000    1.000    2.707

 PERFORMANCE PARAMETERS

 Ae/At                      1.0000   4.0000
 CSTAR, M/SEC               1375.9   1375.9
 CF                         0.6942   1.4367
 Ivac, M/SEC                1718.0   2187.3
 Isp, M/SEC                  955.1   1976.8

 MASS FRACTIONS

 *CO             0.18945   *CO2            0.14165   *H              0.00006
 *H2             0.00418   H2O             0.11440   *NO             0.00027
 *N2             0.54917   *O              0.00001   *OH             0.00078
 *O2             0.00003

  * THERMODYNAMIC PROPERTIES FITTED TO 20000.K

 NOTE. WEIGHT FRACTION OF FUEL IN TOTAL FUELS AND OF OXIDANT IN TOTAL OXIDANTS

           THEORETICAL ROCKET PERFORMANCE ASSUMING FROZEN COMPOSITION

 Pin =   440.9 PSIA
 CASE = _______________

             REACTANT                    WT FRACTION      ENERGY      TEMP
                                          (SEE NOTE)     KJ/KG-MOL      K  
 FUEL        paraffin                     1.0000000  -1860600.000    298.150
 OXIDANT     N2O                          1.0000000         0.000      0.000

 O/F=    6.30000  %FUEL= 13.698630  R,EQ.RATIO= 1.450560  PHI,EQ.RATIO= 1.450560

                 CHAMBER   THROAT     EXIT
 Pinf/P            1.0000   1.8035   26.134
 P, BAR            30.398   16.855   1.1631
 T, K             2586.34  2298.71  1313.28
 RHO, KG/CU M    3.7076 0 2.3130 0 2.7939-1
 H, KJ/KG         -254.43  -710.58 -2208.40
 U, KJ/KG        -1074.30 -1439.28 -2624.71
 G, KJ/KG        -24898.0 -22613.5 -14721.8
 S, KJ/(KG)(K)     9.5284   9.5284   9.5284

 M, (1/n)          26.228   26.228   26.228
 Cp, KJ/(KG)(K)    1.5958   1.5751   1.4443
 GAMMAs            1.2479   1.2520   1.2812
 SON VEL,M/SEC     1011.5    955.1    730.3
 MACH NUMBER        0.000    1.000    2.707

 PERFORMANCE PARAMETERS

 Ae/At                      1.0000   4.0000
 CSTAR, M/SEC               1375.9   1375.9
 CF                         0.6942   1.4367
 Ivac, M/SEC                1718.1   2187.4
 Isp, M/SEC                  955.1   1976.9

 MASS FRACTIONS

 *CO             0.18945   *CO2            0.14165   *H              0.00006
 *H2             0.00418   H2O             0.11441   *NO             0.00027
 *N2             0.54917   *O              0.00001   *OH             0.00076
 *O2             0.00003

  * THERMODYNAMIC PROPERTIES FITTED TO 20000.K

 NOTE. WEIGHT FRACTION OF FUEL IN TOTAL FUELS AND OF OXIDANT IN TOTAL OXIDANTS

           THEORETICAL ROCKET PERFORMANCE ASSUMING FROZEN COMPOSITION

 Pin =   455.6 PSIA
 CASE = _______________

             REACTANT                    WT FRACTION      ENERGY      TEMP
                                          (SEE NOTE)     KJ/KG-MOL      K  
 FUEL        paraffin                     1.0000000  -1860600.000    298.150
 OXIDANT     N2O                          1.0000000         0.000      0.000

 O/F=    6.30000  %FUEL= 13.698630  R,EQ.RATIO= 1.450560  PHI,EQ.RATIO= 1.450560

                 CHAMBER   THROAT     EXIT
 Pinf/P            1.0000   1.8035   26.133
 P, BAR            31.411   17.417   1.2019
 T, K             2586.63  2298.97  1313.47
 RHO, KG/CU M    3.8308 0 2.3899 0 2.8868-1
 H, KJ/KG         -254.43  -710.62 -2208.58
 U, KJ/KG        -1074.38 -1439.38 -2624.94
 G, KJ/KG        -24873.9 -22592.2 -14710.1
 S, KJ/(KG)(K)     9.5180   9.5180   9.5180

 M, (1/n)          26.229   26.229   26.229
 Cp, KJ/(KG)(K)    1.5959   1.5751   1.4444
 GAMMAs            1.2479   1.2520   1.2812
 SON VEL,M/SEC     1011.5    955.2    730.4
 MACH NUMBER        0.000    1.000    2.707

 PERFORMANCE PARAMETERS

 Ae/At                      1.0000   4.0000
 CSTAR, M/SEC               1376.0   1376.0
 CF                         0.6942   1.4367
 Ivac, M/SEC                1718.1   2187.6
 Isp, M/SEC                  955.2   1976.9

 MASS FRACTIONS

 *CO             0.18945   *CO2            0.14166   *H              0.00006
 *H2             0.00418   H2O             0.11443   *NO             0.00026
 *N2             0.54917   *O              0.00001   *OH             0.00075
 *O2             0.00003

  * THERMODYNAMIC PROPERTIES FITTED TO 20000.K

 NOTE. WEIGHT FRACTION OF FUEL IN TOTAL FUELS AND OF OXIDANT IN TOTAL OXIDANTS

           THEORETICAL ROCKET PERFORMANCE ASSUMING FROZEN COMPOSITION

 Pin =   470.3 PSIA
 CASE = _______________

             REACTANT                    WT FRACTION      ENERGY      TEMP
                                          (SEE NOTE)     KJ/KG-MOL      K  
 FUEL        paraffin                     1.0000000  -1860600.000    298.150
 OXIDANT     N2O                          1.0000000         0.000      0.000

 O/F=    6.30000  %FUEL= 13.698630  R,EQ.RATIO= 1.450560  PHI,EQ.RATIO= 1.450560

                 CHAMBER   THROAT     EXIT
 Pinf/P            1.0000   1.8035   26.133
 P, BAR            32.424   17.978   1.2407
 T, K             2586.90  2299.23  1313.65
 RHO, KG/CU M    3.9541 0 2.4668 0 2.9796-1
 H, KJ/KG         -254.43  -710.65 -2208.75
 U, KJ/KG        -1074.45 -1439.48 -2625.17
 G, KJ/KG        -24850.5 -22571.5 -14698.8
 S, KJ/(KG)(K)     9.5079   9.5079   9.5079

 M, (1/n)          26.230   26.230   26.230
 Cp, KJ/(KG)(K)    1.5959   1.5751   1.4444
 GAMMAs            1.2479   1.2519   1.2812
 SON VEL,M/SEC     1011.6    955.2    730.4
 MACH NUMBER        0.000    1.000    2.707

 PERFORMANCE PARAMETERS

 Ae/At                      1.0000   4.0000
 CSTAR, M/SEC               1376.1   1376.1
 CF                         0.6942   1.4367
 Ivac, M/SEC                1718.2   2187.7
 Isp, M/SEC                  955.2   1977.0

 MASS FRACTIONS

 *CO             0.18944   *CO2            0.14166   *H              0.00006
 *H2             0.00418   H2O             0.11444   *NO             0.00026
 *N2             0.54917   *O              0.00001   *OH             0.00074
 *O2             0.00003

  * THERMODYNAMIC PROPERTIES FITTED TO 20000.K

 NOTE. WEIGHT FRACTION OF FUEL IN TOTAL FUELS AND OF OXIDANT IN TOTAL OXIDANTS

           THEORETICAL ROCKET PERFORMANCE ASSUMING FROZEN COMPOSITION

 Pin =   485.0 PSIA
 CASE = _______________

             REACTANT                    WT FRACTION      ENERGY      TEMP
                                          (SEE NOTE)     KJ/KG-MOL      K  
 FUEL        paraffin                     1.0000000  -1860600.000    298.150
 OXIDANT     N2O                          1.0000000         0.000      0.000

 O/F=    6.30000  %FUEL= 13.698630  R,EQ.RATIO= 1.450560  PHI,EQ.RATIO= 1.450560

                 CHAMBER   THROAT     EXIT
 Pinf/P            1.0000   1.8035   26.132
 P, BAR            33.437   18.540   1.2795
 T, K             2587.17  2299.47  1313.82
 RHO, KG/CU M    4.0773 0 2.5436 0 3.0725-1
 H, KJ/KG         -254.43  -710.69 -2208.92
 U, KJ/KG        -1074.51 -1439.58 -2625.38
 G, KJ/KG        -24827.7 -22551.5 -14687.8
 S, KJ/(KG)(K)     9.4982   9.4982   9.4982

 M, (1/n)          26.230   26.230   26.230
 Cp, KJ/(KG)(K)    1.5959   1.5752   1.4444
 GAMMAs            1.2479   1.2519   1.2811
 SON VEL,M/SEC     1011.6    955.3    730.4
 MACH NUMBER        0.000    1.000    2.707

 PERFORMANCE PARAMETERS

 Ae/At                      1.0000   4.0000
 CSTAR, M/SEC               1376.1   1376.1
 CF                         0.6942   1.4367
 Ivac, M/SEC                1718.3   2187.8
 Isp, M/SEC                  955.3   1977.1

 MASS FRACTIONS

 *CO             0.18944   *CO2            0.14166   *H              0.00006
 *H2             0.00418   H2O             0.11445   *NO             0.00025
 *N2             0.54917   *O              0.00001   *OH             0.00073
 *O2             0.00003

  * THERMODYNAMIC PROPERTIES FITTED TO 20000.K

 NOTE. WEIGHT FRACTION OF FUEL IN TOTAL FUELS AND OF OXIDANT IN TOTAL OXIDANTS

           THEORETICAL ROCKET PERFORMANCE ASSUMING FROZEN COMPOSITION

 Pin =   499.7 PSIA
 CASE = _______________

             REACTANT                    WT FRACTION      ENERGY      TEMP
                                          (SEE NOTE)     KJ/KG-MOL      K  
 FUEL        paraffin                     1.0000000  -1860600.000    298.150
 OXIDANT     N2O                          1.0000000         0.000      0.000

 O/F=    6.30000  %FUEL= 13.698630  R,EQ.RATIO= 1.450560  PHI,EQ.RATIO= 1.450560

                 CHAMBER   THROAT     EXIT
 Pinf/P            1.0000   1.8035   26.131
 P, BAR            34.450   19.102   1.3184
 T, K             2587.42  2299.71  1313.99
 RHO, KG/CU M    4.2005 0 2.6205 0 3.1653-1
 H, KJ/KG         -254.43  -710.72 -2209.08
 U, KJ/KG        -1074.58 -1439.67 -2625.58
 G, KJ/KG        -24805.7 -22531.9 -14677.1
 S, KJ/(KG)(K)     9.4887   9.4887   9.4887

 M, (1/n)          26.231   26.231   26.231
 Cp, KJ/(KG)(K)    1.5959   1.5752   1.4445
 GAMMAs            1.2478   1.2519   1.2811
 SON VEL,M/SEC     1011.6    955.3    730.5
 MACH NUMBER        0.000    1.000    2.707

 PERFORMANCE PARAMETERS

 Ae/At                      1.0000   4.0000
 CSTAR, M/SEC               1376.2   1376.2
 CF                         0.6942   1.4367
 Ivac, M/SEC                1718.4   2187.8
 Isp, M/SEC                  955.3   1977.2

 MASS FRACTIONS

 *CO             0.18944   *CO2            0.14166   *H              0.00006
 *H2             0.00418   H2O             0.11446   *NO             0.00025
 *N2             0.54917   *O              0.00001   *OH             0.00072
 *O2             0.00003

  * THERMODYNAMIC PROPERTIES FITTED TO 20000.K

 NOTE. WEIGHT FRACTION OF FUEL IN TOTAL FUELS AND OF OXIDANT IN TOTAL OXIDANTS

           THEORETICAL ROCKET PERFORMANCE ASSUMING FROZEN COMPOSITION

 Pin =   514.4 PSIA
 CASE = _______________

             REACTANT                    WT FRACTION      ENERGY      TEMP
                                          (SEE NOTE)     KJ/KG-MOL      K  
 FUEL        paraffin                     1.0000000  -1860600.000    298.150
 OXIDANT     N2O                          1.0000000         0.000      0.000

 O/F=    6.30000  %FUEL= 13.698630  R,EQ.RATIO= 1.450560  PHI,EQ.RATIO= 1.450560

                 CHAMBER   THROAT     EXIT
 Pinf/P            1.0000   1.8035   26.131
 P, BAR            35.464   19.664   1.3572
 T, K             2587.66  2299.93  1314.15
 RHO, KG/CU M    4.3237 0 2.6974 0 3.2581-1
 H, KJ/KG         -254.43  -710.75 -2209.23
 U, KJ/KG        -1074.64 -1439.76 -2625.78
 G, KJ/KG        -24784.2 -22513.0 -14666.7
 S, KJ/(KG)(K)     9.4795   9.4795   9.4795

 M, (1/n)          26.231   26.231   26.231
 Cp, KJ/(KG)(K)    1.5959   1.5752   1.4445
 GAMMAs            1.2478   1.2519   1.2811
 SON VEL,M/SEC     1011.7    955.3    730.5
 MACH NUMBER        0.000    1.000    2.707

 PERFORMANCE PARAMETERS

 Ae/At                      1.0000   4.0000
 CSTAR, M/SEC               1376.2   1376.2
 CF                         0.6942   1.4367
 Ivac, M/SEC                1718.4   2187.9
 Isp, M/SEC                  955.3   1977.3

 MASS FRACTIONS

 *CO             0.18944   *CO2            0.14167   *H              0.00006
 *H2             0.00418   H2O             0.11448   *NO             0.00025
 *N2             0.54918   *O              0.00001   *OH             0.00071
 *O2             0.00003

  * THERMODYNAMIC PROPERTIES FITTED TO 20000.K

 NOTE. WEIGHT FRACTION OF FUEL IN TOTAL FUELS AND OF OXIDANT IN TOTAL OXIDANTS

           THEORETICAL ROCKET PERFORMANCE ASSUMING FROZEN COMPOSITION

 Pin =   529.1 PSIA
 CASE = _______________

             REACTANT                    WT FRACTION      ENERGY      TEMP
                                          (SEE NOTE)     KJ/KG-MOL      K  
 FUEL        paraffin                     1.0000000  -1860600.000    298.150
 OXIDANT     N2O                          1.0000000         0.000      0.000

 O/F=    6.30000  %FUEL= 13.698630  R,EQ.RATIO= 1.450560  PHI,EQ.RATIO= 1.450560

                 CHAMBER   THROAT     EXIT
 Pinf/P            1.0000   1.8035   26.130
 P, BAR            36.477   20.226   1.3960
 T, K             2587.89  2300.15  1314.30
 RHO, KG/CU M    4.4470 0 2.7743 0 3.3510-1
 H, KJ/KG         -254.43  -710.78 -2209.38
 U, KJ/KG        -1074.69 -1439.85 -2625.96
 G, KJ/KG        -24763.3 -22494.5 -14656.6
 S, KJ/(KG)(K)     9.4706   9.4706   9.4706

 M, (1/n)          26.232   26.232   26.232
 Cp, KJ/(KG)(K)    1.5959   1.5752   1.4445
 GAMMAs            1.2478   1.2519   1.2811
 SON VEL,M/SEC     1011.7    955.4    730.5
 MACH NUMBER        0.000    1.000    2.707

 PERFORMANCE PARAMETERS

 Ae/At                      1.0000   4.0000
 CSTAR, M/SEC               1376.3   1376.3
 CF                         0.6942   1.4367
 Ivac, M/SEC                1718.5   2188.0
 Isp, M/SEC                  955.4   1977.3

 MASS FRACTIONS

 *CO             0.18944   *CO2            0.14167   *H              0.00005
 *H2             0.00418   H2O             0.11449   *NO             0.00024
 *N2             0.54918   *O              0.00001   *OH             0.00070
 *O2             0.00003

  * THERMODYNAMIC PROPERTIES FITTED TO 20000.K

 NOTE. WEIGHT FRACTION OF FUEL IN TOTAL FUELS AND OF OXIDANT IN TOTAL OXIDANTS

           THEORETICAL ROCKET PERFORMANCE ASSUMING FROZEN COMPOSITION

 Pin =   543.8 PSIA
 CASE = _______________

             REACTANT                    WT FRACTION      ENERGY      TEMP
                                          (SEE NOTE)     KJ/KG-MOL      K  
 FUEL        paraffin                     1.0000000  -1860600.000    298.150
 OXIDANT     N2O                          1.0000000         0.000      0.000

 O/F=    6.30000  %FUEL= 13.698630  R,EQ.RATIO= 1.450560  PHI,EQ.RATIO= 1.450560

                 CHAMBER   THROAT     EXIT
 Pinf/P            1.0000   1.8035   26.130
 P, BAR            37.490   20.788   1.4348
 T, K             2588.12  2300.36  1314.45
 RHO, KG/CU M    4.5702 0 2.8511 0 3.4438-1
 H, KJ/KG         -254.43  -710.81 -2209.52
 U, KJ/KG        -1074.75 -1439.93 -2626.14
 G, KJ/KG        -24742.9 -22476.5 -14646.7
 S, KJ/(KG)(K)     9.4619   9.4619   9.4619

 M, (1/n)          26.232   26.232   26.232
 Cp, KJ/(KG)(K)    1.5959   1.5752   1.4445
 GAMMAs            1.2478   1.2519   1.2811
 SON VEL,M/SEC     1011.7    955.4    730.6
 MACH NUMBER        0.000    1.000    2.707

 PERFORMANCE PARAMETERS

 Ae/At                      1.0000   4.0000
 CSTAR, M/SEC               1376.3   1376.3
 CF                         0.6942   1.4367
 Ivac, M/SEC                1718.5   2188.1
 Isp, M/SEC                  955.4   1977.4

 MASS FRACTIONS

 *CO             0.18944   *CO2            0.14167   *H              0.00005
 *H2             0.00418   H2O             0.11450   *NO             0.00024
 *N2             0.54918   *O              0.00001   *OH             0.00069
 *O2             0.00002

  * THERMODYNAMIC PROPERTIES FITTED TO 20000.K

 NOTE. WEIGHT FRACTION OF FUEL IN TOTAL FUELS AND OF OXIDANT IN TOTAL OXIDANTS

           THEORETICAL ROCKET PERFORMANCE ASSUMING FROZEN COMPOSITION

 Pin =   558.4 PSIA
 CASE = _______________

             REACTANT                    WT FRACTION      ENERGY      TEMP
                                          (SEE NOTE)     KJ/KG-MOL      K  
 FUEL        paraffin                     1.0000000  -1860600.000    298.150
 OXIDANT     N2O                          1.0000000         0.000      0.000

 O/F=    6.30000  %FUEL= 13.698630  R,EQ.RATIO= 1.450560  PHI,EQ.RATIO= 1.450560

                 CHAMBER   THROAT     EXIT
 Pinf/P            1.0000   1.8035   26.129
 P, BAR            38.504   21.350   1.4736
 T, K             2588.33  2300.55  1314.59
 RHO, KG/CU M    4.6934 0 2.9280 0 3.5366-1
 H, KJ/KG         -254.43  -710.84 -2209.66
 U, KJ/KG        -1074.80 -1440.01 -2626.32
 G, KJ/KG        -24723.1 -22459.0 -14637.0
 S, KJ/(KG)(K)     9.4534   9.4534   9.4534

 M, (1/n)          26.233   26.233   26.233
 Cp, KJ/(KG)(K)    1.5960   1.5752   1.4446
 GAMMAs            1.2478   1.2519   1.2811
 SON VEL,M/SEC     1011.8    955.4    730.6
 MACH NUMBER        0.000    1.000    2.707

 PERFORMANCE PARAMETERS

 Ae/At                      1.0000   4.0000
 CSTAR, M/SEC               1376.4   1376.4
 CF                         0.6942   1.4367
 Ivac, M/SEC                1718.6   2188.2
 Isp, M/SEC                  955.4   1977.5

 MASS FRACTIONS

 *CO             0.18944   *CO2            0.14167   *H              0.00005
 *H2             0.00418   H2O             0.11451   *NO             0.00024
 *N2             0.54918   *O              0.00001   *OH             0.00069
 *O2             0.00002

  * THERMODYNAMIC PROPERTIES FITTED TO 20000.K

 NOTE. WEIGHT FRACTION OF FUEL IN TOTAL FUELS AND OF OXIDANT IN TOTAL OXIDANTS

           THEORETICAL ROCKET PERFORMANCE ASSUMING FROZEN COMPOSITION

 Pin =   573.1 PSIA
 CASE = _______________

             REACTANT                    WT FRACTION      ENERGY      TEMP
                                          (SEE NOTE)     KJ/KG-MOL      K  
 FUEL        paraffin                     1.0000000  -1860600.000    298.150
 OXIDANT     N2O                          1.0000000         0.000      0.000

 O/F=    6.30000  %FUEL= 13.698630  R,EQ.RATIO= 1.450560  PHI,EQ.RATIO= 1.450560

                 CHAMBER   THROAT     EXIT
 Pinf/P            1.0000   1.8034   26.129
 P, BAR            39.517   21.912   1.5124
 T, K             2588.54  2300.75  1314.72
 RHO, KG/CU M    4.8166 0 3.0049 0 3.6295-1
 H, KJ/KG         -254.43  -710.87 -2209.79
 U, KJ/KG        -1074.86 -1440.08 -2626.48
 G, KJ/KG        -24703.7 -22441.9 -14627.6
 S, KJ/(KG)(K)     9.4452   9.4452   9.4452

 M, (1/n)          26.233   26.233   26.233
 Cp, KJ/(KG)(K)    1.5960   1.5753   1.4446
 GAMMAs            1.2478   1.2519   1.2811
 SON VEL,M/SEC     1011.8    955.5    730.6
 MACH NUMBER        0.000    1.000    2.707

 PERFORMANCE PARAMETERS

 Ae/At                     1.00000   4.0000
 CSTAR, M/SEC               1376.4   1376.4
 CF                         0.6942   1.4367
 Ivac, M/SEC                1718.7   2188.3
 Isp, M/SEC                  955.4   1977.6

 MASS FRACTIONS

 *CO             0.18943   *CO2            0.14167   *H              0.00005
 *H2             0.00418   H2O             0.11452   *NO             0.00024
 *N2             0.54918   *O              0.00001   *OH             0.00068
 *O2             0.00002

  * THERMODYNAMIC PROPERTIES FITTED TO 20000.K

 NOTE. WEIGHT FRACTION OF FUEL IN TOTAL FUELS AND OF OXIDANT IN TOTAL OXIDANTS

           THEORETICAL ROCKET PERFORMANCE ASSUMING FROZEN COMPOSITION

 Pin =   587.8 PSIA
 CASE = _______________

             REACTANT                    WT FRACTION      ENERGY      TEMP
                                          (SEE NOTE)     KJ/KG-MOL      K  
 FUEL        paraffin                     1.0000000  -1860600.000    298.150
 OXIDANT     N2O                          1.0000000         0.000      0.000

 O/F=    6.30000  %FUEL= 13.698630  R,EQ.RATIO= 1.450560  PHI,EQ.RATIO= 1.450560

                 CHAMBER   THROAT     EXIT
 Pinf/P            1.0000   1.8034   26.128
 P, BAR            40.530   22.474   1.5512
 T, K             2588.74  2300.93  1314.85
 RHO, KG/CU M    4.9398 0 3.0817 0 3.7223-1
 H, KJ/KG         -254.43  -710.90 -2209.91
 U, KJ/KG        -1074.91 -1440.16 -2626.65
 G, KJ/KG        -24684.8 -22425.2 -14618.4
 S, KJ/(KG)(K)     9.4372   9.4372   9.4372

 M, (1/n)          26.234   26.234   26.234
 Cp, KJ/(KG)(K)    1.5960   1.5753   1.4446
 GAMMAs            1.2478   1.2519   1.2811
 SON VEL,M/SEC     1011.8    955.5    730.7
 MACH NUMBER        0.000    1.000    2.707

 PERFORMANCE PARAMETERS

 Ae/At                      1.0000   4.0000
 CSTAR, M/SEC               1376.5   1376.5
 CF                         0.6942   1.4367
 Ivac, M/SEC                1718.7   2188.3
 Isp, M/SEC                  955.5   1977.6

 MASS FRACTIONS

 *CO             0.18943   *CO2            0.14167   *H              0.00005
 *H2             0.00418   H2O             0.11453   *NO             0.00023
 *N2             0.54918   *O              0.00001   *OH             0.00067
 *O2             0.00002

  * THERMODYNAMIC PROPERTIES FITTED TO 20000.K

 NOTE. WEIGHT FRACTION OF FUEL IN TOTAL FUELS AND OF OXIDANT IN TOTAL OXIDANTS

           THEORETICAL ROCKET PERFORMANCE ASSUMING FROZEN COMPOSITION

 Pin =   602.5 PSIA
 CASE = _______________

             REACTANT                    WT FRACTION      ENERGY      TEMP
                                          (SEE NOTE)     KJ/KG-MOL      K  
 FUEL        paraffin                     1.0000000  -1860600.000    298.150
 OXIDANT     N2O                          1.0000000         0.000      0.000

 O/F=    6.30000  %FUEL= 13.698630  R,EQ.RATIO= 1.450560  PHI,EQ.RATIO= 1.450560

                 CHAMBER   THROAT     EXIT
 Pinf/P            1.0000   1.8034   26.128
 P, BAR            41.543   23.036   1.5900
 T, K             2588.93  2301.11  1314.98
 RHO, KG/CU M    5.0630 0 3.1586 0 3.8151-1
 H, KJ/KG         -254.43  -710.92 -2210.04
 U, KJ/KG        -1074.95 -1440.23 -2626.80
 G, KJ/KG        -24666.4 -22408.9 -14609.4
 S, KJ/(KG)(K)     9.4294   9.4294   9.4294

 M, (1/n)          26.234   26.234   26.234
 Cp, KJ/(KG)(K)    1.5960   1.5753   1.4446
 GAMMAs            1.2478   1.2519   1.2810
 SON VEL,M/SEC     1011.9    955.5    730.7
 MACH NUMBER        0.000    1.000    2.707

 PERFORMANCE PARAMETERS

 Ae/At                      1.0000   4.0000
 CSTAR, M/SEC               1376.5   1376.5
 CF                         0.6942   1.4367
 Ivac, M/SEC                1718.8   2188.4
 Isp, M/SEC                  955.5   1977.7

 MASS FRACTIONS

 *CO             0.18943   *CO2            0.14168   *H              0.00005
 *H2             0.00418   H2O             0.11454   *NO             0.00023
 *N2             0.54918   *O              0.00001   *OH             0.00066
 *O2             0.00002

  * THERMODYNAMIC PROPERTIES FITTED TO 20000.K

 NOTE. WEIGHT FRACTION OF FUEL IN TOTAL FUELS AND OF OXIDANT IN TOTAL OXIDANTS

           THEORETICAL ROCKET PERFORMANCE ASSUMING FROZEN COMPOSITION

 Pin =   617.2 PSIA
 CASE = _______________

             REACTANT                    WT FRACTION      ENERGY      TEMP
                                          (SEE NOTE)     KJ/KG-MOL      K  
 FUEL        paraffin                     1.0000000  -1860600.000    298.150
 OXIDANT     N2O                          1.0000000         0.000      0.000

 O/F=    6.30000  %FUEL= 13.698630  R,EQ.RATIO= 1.450560  PHI,EQ.RATIO= 1.450560

                 CHAMBER   THROAT     EXIT
 Pinf/P            1.0000   1.8034   26.127
 P, BAR            42.556   23.598   1.6288
 T, K             2589.11  2301.28  1315.10
 RHO, KG/CU M    5.1862 0 3.2354 0 3.9079-1
 H, KJ/KG         -254.43  -710.95 -2210.15
 U, KJ/KG        -1075.00 -1440.30 -2626.95
 G, KJ/KG        -24648.3 -22393.0 -14600.7
 S, KJ/(KG)(K)     9.4217   9.4217   9.4217

 M, (1/n)          26.234   26.234   26.234
 Cp, KJ/(KG)(K)    1.5960   1.5753   1.4447
 GAMMAs            1.2478   1.2519   1.2810
 SON VEL,M/SEC     1011.9    955.5    730.7
 MACH NUMBER        0.000    1.000    2.707

 PERFORMANCE PARAMETERS

 Ae/At                      1.0000   4.0000
 CSTAR, M/SEC               1376.5   1376.5
 CF                         0.6941   1.4367
 Ivac, M/SEC                1718.8   2188.5
 Isp, M/SEC                  955.5   1977.7

 MASS FRACTIONS

 *CO             0.18943   *CO2            0.14168   *H              0.00005
 *H2             0.00418   H2O             0.11455   *NO             0.00023
 *N2             0.54918   *O              0.00001   *OH             0.00066
 *O2             0.00002

  * THERMODYNAMIC PROPERTIES FITTED TO 20000.K

 NOTE. WEIGHT FRACTION OF FUEL IN TOTAL FUELS AND OF OXIDANT IN TOTAL OXIDANTS

           THEORETICAL ROCKET PERFORMANCE ASSUMING FROZEN COMPOSITION

 Pin =   631.9 PSIA
 CASE = _______________

             REACTANT                    WT FRACTION      ENERGY      TEMP
                                          (SEE NOTE)     KJ/KG-MOL      K  
 FUEL        paraffin                     1.0000000  -1860600.000    298.150
 OXIDANT     N2O                          1.0000000         0.000      0.000

 O/F=    6.30000  %FUEL= 13.698630  R,EQ.RATIO= 1.450560  PHI,EQ.RATIO= 1.450560

                 CHAMBER   THROAT     EXIT
 Pinf/P            1.0000   1.8034   26.127
 P, BAR            43.570   24.159   1.6676
 T, K             2589.29  2301.45  1315.22
 RHO, KG/CU M    5.3094 0 3.3123 0 4.0007-1
 H, KJ/KG         -254.43  -710.97 -2210.27
 U, KJ/KG        -1075.05 -1440.36 -2627.09
 G, KJ/KG        -24630.7 -22377.4 -14592.1
 S, KJ/(KG)(K)     9.4143   9.4143   9.4143

 M, (1/n)          26.235   26.235   26.235
 Cp, KJ/(KG)(K)    1.5960   1.5753   1.4447
 GAMMAs            1.2478   1.2519   1.2810
 SON VEL,M/SEC     1011.9    955.6    730.7
 MACH NUMBER        0.000    1.000    2.707

 PERFORMANCE PARAMETERS

 Ae/At                      1.0000   4.0000
 CSTAR, M/SEC               1376.6   1376.6
 CF                         0.6941   1.4367
 Ivac, M/SEC                1718.9   2188.5
 Isp, M/SEC                  955.6   1977.8

 MASS FRACTIONS

 *CO             0.18943   *CO2            0.14168   *H              0.00005
 *H2             0.00418   H2O             0.11456   *NO             0.00023
 *N2             0.54918   *O              0.00001   *OH             0.00065
 *O2             0.00002

  * THERMODYNAMIC PROPERTIES FITTED TO 20000.K

 NOTE. WEIGHT FRACTION OF FUEL IN TOTAL FUELS AND OF OXIDANT IN TOTAL OXIDANTS

           THEORETICAL ROCKET PERFORMANCE ASSUMING FROZEN COMPOSITION

 Pin =   646.6 PSIA
 CASE = _______________

             REACTANT                    WT FRACTION      ENERGY      TEMP
                                          (SEE NOTE)     KJ/KG-MOL      K  
 FUEL        paraffin                     1.0000000  -1860600.000    298.150
 OXIDANT     N2O                          1.0000000         0.000      0.000

 O/F=    6.30000  %FUEL= 13.698630  R,EQ.RATIO= 1.450560  PHI,EQ.RATIO= 1.450560

                 CHAMBER   THROAT     EXIT
 Pinf/P            1.0000   1.8034   26.126
 P, BAR            44.583   24.721   1.7064
 T, K             2589.47  2301.61  1315.33
 RHO, KG/CU M    5.4326 0 3.3891 0 4.0935-1
 H, KJ/KG         -254.43  -710.99 -2210.38
 U, KJ/KG        -1075.09 -1440.42 -2627.23
 G, KJ/KG        -24613.5 -22362.2 -14583.7
 S, KJ/(KG)(K)     9.4070   9.4070   9.4070

 M, (1/n)          26.235   26.235   26.235
 Cp, KJ/(KG)(K)    1.5960   1.5753   1.4447
 GAMMAs            1.2478   1.2518   1.2810
 SON VEL,M/SEC     1011.9    955.6    730.8
 MACH NUMBER        0.000    1.000    2.707

 PERFORMANCE PARAMETERS

 Ae/At                      1.0000   4.0000
 CSTAR, M/SEC               1376.6   1376.6
 CF                         0.6941   1.4367
 Ivac, M/SEC                1718.9   2188.6
 Isp, M/SEC                  955.6   1977.9

 MASS FRACTIONS

 *CO             0.18943   *CO2            0.14168   *H              0.00005
 *H2             0.00418   H2O             0.11457   *NO             0.00022
 *N2             0.54919   *O              0.00001   *OH             0.00064
 *O2             0.00002

  * THERMODYNAMIC PROPERTIES FITTED TO 20000.K

 NOTE. WEIGHT FRACTION OF FUEL IN TOTAL FUELS AND OF OXIDANT IN TOTAL OXIDANTS

           THEORETICAL ROCKET PERFORMANCE ASSUMING FROZEN COMPOSITION

 Pin =   661.3 PSIA
 CASE = _______________

             REACTANT                    WT FRACTION      ENERGY      TEMP
                                          (SEE NOTE)     KJ/KG-MOL      K  
 FUEL        paraffin                     1.0000000  -1860600.000    298.150
 OXIDANT     N2O                          1.0000000         0.000      0.000

 O/F=    6.30000  %FUEL= 13.698630  R,EQ.RATIO= 1.450560  PHI,EQ.RATIO= 1.450560

                 CHAMBER   THROAT     EXIT
 Pinf/P            1.0000   1.8034   26.126
 P, BAR            45.596   25.283   1.7452
 T, K             2589.63  2301.76  1315.44
 RHO, KG/CU M    5.5558 0 3.4660 0 4.1864-1
 H, KJ/KG         -254.43  -711.01 -2210.48
 U, KJ/KG        -1075.13 -1440.49 -2627.37
 G, KJ/KG        -24596.6 -22347.3 -14575.4
 S, KJ/(KG)(K)     9.3999   9.3999   9.3999

 M, (1/n)          26.235   26.235   26.235
 Cp, KJ/(KG)(K)    1.5960   1.5753   1.4447
 GAMMAs            1.2478   1.2518   1.2810
 SON VEL,M/SEC     1012.0    955.6    730.8
 MACH NUMBER        0.000    1.000    2.707

 PERFORMANCE PARAMETERS

 Ae/At                      1.0000   4.0000
 CSTAR, M/SEC               1376.7   1376.7
 CF                         0.6941   1.4367
 Ivac, M/SEC                1719.0   2188.7
 Isp, M/SEC                  955.6   1977.9

 MASS FRACTIONS

 *CO             0.18943   *CO2            0.14168   *H              0.00005
 *H2             0.00418   H2O             0.11458   *NO             0.00022
 *N2             0.54919   *O              0.00001   *OH             0.00064
 *O2             0.00002

  * THERMODYNAMIC PROPERTIES FITTED TO 20000.K

 NOTE. WEIGHT FRACTION OF FUEL IN TOTAL FUELS AND OF OXIDANT IN TOTAL OXIDANTS

           THEORETICAL ROCKET PERFORMANCE ASSUMING FROZEN COMPOSITION

 Pin =   676.0 PSIA
 CASE = _______________

             REACTANT                    WT FRACTION      ENERGY      TEMP
                                          (SEE NOTE)     KJ/KG-MOL      K  
 FUEL        paraffin                     1.0000000  -1860600.000    298.150
 OXIDANT     N2O                          1.0000000         0.000      0.000

 O/F=    6.30000  %FUEL= 13.698630  R,EQ.RATIO= 1.450560  PHI,EQ.RATIO= 1.450560

                 CHAMBER   THROAT     EXIT
 Pinf/P            1.0000   1.8034   26.126
 P, BAR            46.609   25.845   1.7840
 T, K             2589.80  2301.91  1315.55
 RHO, KG/CU M    5.6789 0 3.5428 0 4.2792-1
 H, KJ/KG         -254.43  -711.04 -2210.58
 U, KJ/KG        -1075.17 -1440.55 -2627.50
 G, KJ/KG        -24580.1 -22332.7 -14567.4
 S, KJ/(KG)(K)     9.3929   9.3929   9.3929

 M, (1/n)          26.236   26.236   26.236
 Cp, KJ/(KG)(K)    1.5960   1.5753   1.4447
 GAMMAs            1.2478   1.2518   1.2810
 SON VEL,M/SEC     1012.0    955.6    730.8
 MACH NUMBER        0.000    1.000    2.707

 PERFORMANCE PARAMETERS

 Ae/At                      1.0000   4.0000
 CSTAR, M/SEC               1376.7   1376.7
 CF                         0.6941   1.4367
 Ivac, M/SEC                1719.0   2188.7
 Isp, M/SEC                  955.6   1978.0

 MASS FRACTIONS

 *CO             0.18943   *CO2            0.14168   *H              0.00005
 *H2             0.00418   H2O             0.11458   *NO             0.00022
 *N2             0.54919   *O              0.00001   *OH             0.00063
 *O2             0.00002

  * THERMODYNAMIC PROPERTIES FITTED TO 20000.K

 NOTE. WEIGHT FRACTION OF FUEL IN TOTAL FUELS AND OF OXIDANT IN TOTAL OXIDANTS

           THEORETICAL ROCKET PERFORMANCE ASSUMING FROZEN COMPOSITION

 Pin =   690.7 PSIA
 CASE = _______________

             REACTANT                    WT FRACTION      ENERGY      TEMP
                                          (SEE NOTE)     KJ/KG-MOL      K  
 FUEL        paraffin                     1.0000000  -1860600.000    298.150
 OXIDANT     N2O                          1.0000000         0.000      0.000

 O/F=    6.30000  %FUEL= 13.698630  R,EQ.RATIO= 1.450560  PHI,EQ.RATIO= 1.450560

                 CHAMBER   THROAT     EXIT
 Pinf/P            1.0000   1.8034   26.125
 P, BAR            47.623   26.407   1.8229
 T, K             2589.95  2302.06  1315.65
 RHO, KG/CU M    5.8021 0 3.6197 0 4.3720-1
 H, KJ/KG         -254.43  -711.06 -2210.68
 U, KJ/KG        -1075.21 -1440.60 -2627.63
 G, KJ/KG        -24563.9 -22318.4 -14559.5
 S, KJ/(KG)(K)     9.3861   9.3861   9.3861

 M, (1/n)          26.236   26.236   26.236
 Cp, KJ/(KG)(K)    1.5960   1.5754   1.4447
 GAMMAs            1.2478   1.2518   1.2810
 SON VEL,M/SEC     1012.0    955.6    730.8
 MACH NUMBER        0.000    1.000    2.707

 PERFORMANCE PARAMETERS

 Ae/At                      1.0000   4.0000
 CSTAR, M/SEC               1376.7   1376.7
 CF                         0.6941   1.4367
 Ivac, M/SEC                1719.1   2188.8
 Isp, M/SEC                  955.6   1978.0

 MASS FRACTIONS

 *CO             0.18943   *CO2            0.14169   *H              0.00005
 *H2             0.00418   H2O             0.11459   *NO             0.00022
 *N2             0.54919   *O              0.00001   *OH             0.00062
 *O2             0.00002

  * THERMODYNAMIC PROPERTIES FITTED TO 20000.K

 NOTE. WEIGHT FRACTION OF FUEL IN TOTAL FUELS AND OF OXIDANT IN TOTAL OXIDANTS

           THEORETICAL ROCKET PERFORMANCE ASSUMING FROZEN COMPOSITION

 Pin =   705.4 PSIA
 CASE = _______________

             REACTANT                    WT FRACTION      ENERGY      TEMP
                                          (SEE NOTE)     KJ/KG-MOL      K  
 FUEL        paraffin                     1.0000000  -1860600.000    298.150
 OXIDANT     N2O                          1.0000000         0.000      0.000

 O/F=    6.30000  %FUEL= 13.698630  R,EQ.RATIO= 1.450560  PHI,EQ.RATIO= 1.450560

                 CHAMBER   THROAT     EXIT
 Pinf/P            1.0000   1.8034   26.125
 P, BAR            48.636   26.969   1.8617
 T, K             2590.11  2302.20  1315.75
 RHO, KG/CU M    5.9253 0 3.6965 0 4.4648-1
 H, KJ/KG         -254.43  -711.08 -2210.78
 U, KJ/KG        -1075.25 -1440.66 -2627.75
 G, KJ/KG        -24548.1 -22304.3 -14551.7
 S, KJ/(KG)(K)     9.3794   9.3794   9.3794

 M, (1/n)          26.236   26.236   26.236
 Cp, KJ/(KG)(K)    1.5961   1.5754   1.4448
 GAMMAs            1.2477   1.2518   1.2810
 SON VEL,M/SEC     1012.0    955.7    730.8
 MACH NUMBER        0.000    1.000    2.707

 PERFORMANCE PARAMETERS

 Ae/At                      1.0000   4.0000
 CSTAR, M/SEC               1376.8   1376.8
 CF                         0.6941   1.4367
 Ivac, M/SEC                1719.1   2188.9
 Isp, M/SEC                  955.7   1978.1

 MASS FRACTIONS

 *CO             0.18943   *CO2            0.14169   *H              0.00005
 *H2             0.00418   H2O             0.11460   *NO             0.00021
 *N2             0.54919   *O              0.00001   *OH             0.00062
 *O2             0.00002

  * THERMODYNAMIC PROPERTIES FITTED TO 20000.K

 NOTE. WEIGHT FRACTION OF FUEL IN TOTAL FUELS AND OF OXIDANT IN TOTAL OXIDANTS

           THEORETICAL ROCKET PERFORMANCE ASSUMING FROZEN COMPOSITION

 Pin =   367.4 PSIA
 CASE = _______________

             REACTANT                    WT FRACTION      ENERGY      TEMP
                                          (SEE NOTE)     KJ/KG-MOL      K  
 FUEL        paraffin                     1.0000000  -1860600.000    298.150
 OXIDANT     N2O                          1.0000000         0.000      0.000

 O/F=    6.50000  %FUEL= 13.333333  R,EQ.RATIO= 1.405927  PHI,EQ.RATIO= 1.405927

                 CHAMBER   THROAT     EXIT
 Pinf/P            1.0000   1.8020   25.976
 P, BAR            25.331   14.058  0.97518
 T, K             2633.43  2343.13  1347.08
 RHO, KG/CU M    3.0654 0 1.9119 0 2.3070-1
 H, KJ/KG         -247.64  -706.97 -2219.40
 U, KJ/KG        -1074.00 -1442.24 -2642.11
 G, KJ/KG        -25397.1 -23084.1 -15084.2
 S, KJ/(KG)(K)     9.5501   9.5501   9.5501

 M, (1/n)          26.497   26.497   26.497
 Cp, KJ/(KG)(K)    1.5919   1.5719   1.4449
 GAMMAs            1.2455   1.2494   1.2774
 SON VEL,M/SEC     1014.5    958.5    734.8
 MACH NUMBER        0.000    1.000    2.702

 PERFORMANCE PARAMETERS

 Ae/At                      1.0000   4.0000
 CSTAR, M/SEC               1382.3   1382.3
 CF                         0.6934   1.4366
 Ivac, M/SEC                1725.6   2198.7
 Isp, M/SEC                  958.5   1985.8

 MASS FRACTIONS

 *CO             0.17502   *CO2            0.15261   *H              0.00007
 *H2             0.00356   H2O             0.11562   *NO             0.00046
 *N2             0.55140   *O              0.00003   *OH             0.00116
 *O2             0.00008

  * THERMODYNAMIC PROPERTIES FITTED TO 20000.K

 NOTE. WEIGHT FRACTION OF FUEL IN TOTAL FUELS AND OF OXIDANT IN TOTAL OXIDANTS

           THEORETICAL ROCKET PERFORMANCE ASSUMING FROZEN COMPOSITION

 Pin =   382.1 PSIA
 CASE = _______________

             REACTANT                    WT FRACTION      ENERGY      TEMP
                                          (SEE NOTE)     KJ/KG-MOL      K  
 FUEL        paraffin                     1.0000000  -1860600.000    298.150
 OXIDANT     N2O                          1.0000000         0.000      0.000

 O/F=    6.50000  %FUEL= 13.333333  R,EQ.RATIO= 1.405927  PHI,EQ.RATIO= 1.405927

                 CHAMBER   THROAT     EXIT
 Pinf/P            1.0000   1.8019   25.975
 P, BAR            26.345   14.620   1.0142
 T, K             2633.91  2343.58  1347.40
 RHO, KG/CU M    3.1876 0 1.9881 0 2.3989-1
 H, KJ/KG         -247.64  -707.04 -2219.71
 U, KJ/KG        -1074.12 -1442.41 -2642.50
 G, KJ/KG        -25369.4 -23059.6 -15071.0
 S, KJ/(KG)(K)     9.5378   9.5378   9.5378

 M, (1/n)          26.498   26.498   26.498
 Cp, KJ/(KG)(K)    1.5920   1.5719   1.4450
 GAMMAs            1.2455   1.2494   1.2774
 SON VEL,M/SEC     1014.6    958.5    734.9
 MACH NUMBER        0.000    1.000    2.702

 PERFORMANCE PARAMETERS

 Ae/At                      1.0000   4.0000
 CSTAR, M/SEC               1382.4   1382.4
 CF                         0.6934   1.4366
 Ivac, M/SEC                1725.7   2198.9
 Isp, M/SEC                  958.5   1986.0

 MASS FRACTIONS

 *CO             0.17501   *CO2            0.15262   *H              0.00007
 *H2             0.00356   H2O             0.11564   *NO             0.00045
 *N2             0.55141   *O              0.00002   *OH             0.00114
 *O2             0.00007

  * THERMODYNAMIC PROPERTIES FITTED TO 20000.K

 NOTE. WEIGHT FRACTION OF FUEL IN TOTAL FUELS AND OF OXIDANT IN TOTAL OXIDANTS

           THEORETICAL ROCKET PERFORMANCE ASSUMING FROZEN COMPOSITION

 Pin =   396.8 PSIA
 CASE = _______________

             REACTANT                    WT FRACTION      ENERGY      TEMP
                                          (SEE NOTE)     KJ/KG-MOL      K  
 FUEL        paraffin                     1.0000000  -1860600.000    298.150
 OXIDANT     N2O                          1.0000000         0.000      0.000

 O/F=    6.50000  %FUEL= 13.333333  R,EQ.RATIO= 1.405927  PHI,EQ.RATIO= 1.405927

                 CHAMBER   THROAT     EXIT
 Pinf/P            1.0000   1.8019   25.974
 P, BAR            27.358   15.182   1.0533
 T, K             2634.37  2344.01  1347.71
 RHO, KG/CU M    3.3097 0 2.0643 0 2.4908-1
 H, KJ/KG         -247.64  -707.10 -2220.00
 U, KJ/KG        -1074.23 -1442.58 -2642.87
 G, KJ/KG        -25342.5 -23036.0 -15058.2
 S, KJ/(KG)(K)     9.5260   9.5260   9.5260

 M, (1/n)          26.499   26.499   26.499
 Cp, KJ/(KG)(K)    1.5920   1.5720   1.4450
 GAMMAs            1.2455   1.2494   1.2774
 SON VEL,M/SEC     1014.6    958.6    735.0
 MACH NUMBER        0.000    1.000    2.702

 PERFORMANCE PARAMETERS

 Ae/At                      1.0000   4.0000
 CSTAR, M/SEC               1382.5   1382.5
 CF                         0.6934   1.4366
 Ivac, M/SEC                1725.8   2199.0
 Isp, M/SEC                  958.6   1986.1

 MASS FRACTIONS

 *CO             0.17501   *CO2            0.15263   *H              0.00007
 *H2             0.00356   H2O             0.11566   *NO             0.00044
 *N2             0.55141   *O              0.00002   *OH             0.00112
 *O2             0.00007

  * THERMODYNAMIC PROPERTIES FITTED TO 20000.K

 NOTE. WEIGHT FRACTION OF FUEL IN TOTAL FUELS AND OF OXIDANT IN TOTAL OXIDANTS

           THEORETICAL ROCKET PERFORMANCE ASSUMING FROZEN COMPOSITION

 Pin =   411.5 PSIA
 CASE = _______________

             REACTANT                    WT FRACTION      ENERGY      TEMP
                                          (SEE NOTE)     KJ/KG-MOL      K  
 FUEL        paraffin                     1.0000000  -1860600.000    298.150
 OXIDANT     N2O                          1.0000000         0.000      0.000

 O/F=    6.50000  %FUEL= 13.333333  R,EQ.RATIO= 1.405927  PHI,EQ.RATIO= 1.405927

                 CHAMBER   THROAT     EXIT
 Pinf/P            1.0000   1.8019   25.973
 P, BAR            28.371   15.745   1.0923
 T, K             2634.81  2344.42  1348.00
 RHO, KG/CU M    3.4318 0 2.1405 0 2.5827-1
 H, KJ/KG         -247.64  -707.16 -2220.27
 U, KJ/KG        -1074.34 -1442.74 -2643.22
 G, KJ/KG        -25316.6 -23013.2 -15045.8
 S, KJ/(KG)(K)     9.5145   9.5145   9.5145

 M, (1/n)          26.500   26.500   26.500
 Cp, KJ/(KG)(K)    1.5920   1.5720   1.4451
 GAMMAs            1.2455   1.2494   1.2773
 SON VEL,M/SEC     1014.7    958.7    735.0
 MACH NUMBER        0.000    1.000    2.702

 PERFORMANCE PARAMETERS

 Ae/At                      1.0000   4.0000
 CSTAR, M/SEC               1382.6   1382.6
 CF                         0.6934   1.4366
 Ivac, M/SEC                1726.0   2199.2
 Isp, M/SEC                  958.7   1986.3

 MASS FRACTIONS

 *CO             0.17500   *CO2            0.15264   *H              0.00007
 *H2             0.00356   H2O             0.11569   *NO             0.00044
 *N2             0.55141   *O              0.00002   *OH             0.00110
 *O2             0.00007

  * THERMODYNAMIC PROPERTIES FITTED TO 20000.K

 NOTE. WEIGHT FRACTION OF FUEL IN TOTAL FUELS AND OF OXIDANT IN TOTAL OXIDANTS

           THEORETICAL ROCKET PERFORMANCE ASSUMING FROZEN COMPOSITION

 Pin =   426.2 PSIA
 CASE = _______________

             REACTANT                    WT FRACTION      ENERGY      TEMP
                                          (SEE NOTE)     KJ/KG-MOL      K  
 FUEL        paraffin                     1.0000000  -1860600.000    298.150
 OXIDANT     N2O                          1.0000000         0.000      0.000

 O/F=    6.50000  %FUEL= 13.333333  R,EQ.RATIO= 1.405927  PHI,EQ.RATIO= 1.405927

                 CHAMBER   THROAT     EXIT
 Pinf/P            1.0000   1.8019   25.972
 P, BAR            29.384   16.307   1.1314
 T, K             2635.22  2344.80  1348.27
 RHO, KG/CU M    3.5540 0 2.2166 0 2.6746-1
 H, KJ/KG         -247.64  -707.21 -2220.53
 U, KJ/KG        -1074.44 -1442.89 -2643.55
 G, KJ/KG        -25291.6 -22991.1 -15033.9
 S, KJ/(KG)(K)     9.5035   9.5035   9.5035

 M, (1/n)          26.500   26.500   26.500
 Cp, KJ/(KG)(K)    1.5920   1.5720   1.4451
 GAMMAs            1.2454   1.2494   1.2773
 SON VEL,M/SEC     1014.8    958.7    735.1
 MACH NUMBER        0.000    1.000    2.702

 PERFORMANCE PARAMETERS

 Ae/At                      1.0000   4.0000
 CSTAR, M/SEC               1382.7   1382.7
 CF                         0.6934   1.4366
 Ivac, M/SEC                1726.1   2199.4
 Isp, M/SEC                  958.7   1986.4

 MASS FRACTIONS

 *CO             0.17499   *CO2            0.15265   *H              0.00007
 *H2             0.00356   H2O             0.11571   *NO             0.00043
 *N2             0.55142   *O              0.00002   *OH             0.00109
 *O2             0.00007

  * THERMODYNAMIC PROPERTIES FITTED TO 20000.K

 NOTE. WEIGHT FRACTION OF FUEL IN TOTAL FUELS AND OF OXIDANT IN TOTAL OXIDANTS

           THEORETICAL ROCKET PERFORMANCE ASSUMING FROZEN COMPOSITION

 Pin =   440.9 PSIA
 CASE = _______________

             REACTANT                    WT FRACTION      ENERGY      TEMP
                                          (SEE NOTE)     KJ/KG-MOL      K  
 FUEL        paraffin                     1.0000000  -1860600.000    298.150
 OXIDANT     N2O                          1.0000000         0.000      0.000

 O/F=    6.50000  %FUEL= 13.333333  R,EQ.RATIO= 1.405927  PHI,EQ.RATIO= 1.405927

                 CHAMBER   THROAT     EXIT
 Pinf/P            1.0000   1.8019   25.971
 P, BAR            30.398   16.870   1.1705
 T, K             2635.62  2345.17  1348.53
 RHO, KG/CU M    3.6761 0 2.2928 0 2.7665-1
 H, KJ/KG         -247.64  -707.26 -2220.78
 U, KJ/KG        -1074.54 -1443.03 -2643.87
 G, KJ/KG        -25267.3 -22969.7 -15022.2
 S, KJ/(KG)(K)     9.4929   9.4929   9.4929

 M, (1/n)          26.501   26.501   26.501
 Cp, KJ/(KG)(K)    1.5921   1.5720   1.4452
 GAMMAs            1.2454   1.2493   1.2773
 SON VEL,M/SEC     1014.8    958.8    735.1
 MACH NUMBER        0.000    1.000    2.702

 PERFORMANCE PARAMETERS

 Ae/At                      1.0000   4.0000
 CSTAR, M/SEC               1382.8   1382.8
 CF                         0.6933   1.4366
 Ivac, M/SEC                1726.2   2199.5
 Isp, M/SEC                  958.8   1986.5

 MASS FRACTIONS

 *CO             0.17499   *CO2            0.15266   *H              0.00007
 *H2             0.00356   H2O             0.11573   *NO             0.00042
 *N2             0.55142   *O              0.00002   *OH             0.00107
 *O2             0.00006

  * THERMODYNAMIC PROPERTIES FITTED TO 20000.K

 NOTE. WEIGHT FRACTION OF FUEL IN TOTAL FUELS AND OF OXIDANT IN TOTAL OXIDANTS

           THEORETICAL ROCKET PERFORMANCE ASSUMING FROZEN COMPOSITION

 Pin =   455.6 PSIA
 CASE = _______________

             REACTANT                    WT FRACTION      ENERGY      TEMP
                                          (SEE NOTE)     KJ/KG-MOL      K  
 FUEL        paraffin                     1.0000000  -1860600.000    298.150
 OXIDANT     N2O                          1.0000000         0.000      0.000

 O/F=    6.50000  %FUEL= 13.333333  R,EQ.RATIO= 1.405927  PHI,EQ.RATIO= 1.405927

                 CHAMBER   THROAT     EXIT
 Pinf/P            1.0000   1.8019   25.970
 P, BAR            31.411   17.432   1.2095
 T, K             2636.00  2345.52  1348.78
 RHO, KG/CU M    3.7982 0 2.3689 0 2.8583-1
 H, KJ/KG         -247.64  -707.31 -2221.01
 U, KJ/KG        -1074.64 -1443.17 -2644.17
 G, KJ/KG        -25243.8 -22948.9 -15011.0
 S, KJ/(KG)(K)     9.4826   9.4826   9.4826

 M, (1/n)          26.502   26.502   26.502
 Cp, KJ/(KG)(K)    1.5921   1.5721   1.4452
 GAMMAs            1.2454   1.2493   1.2773
 SON VEL,M/SEC     1014.9    958.8    735.2
 MACH NUMBER        0.000    1.000    2.702

 PERFORMANCE PARAMETERS

 Ae/At                      1.0000   4.0000
 CSTAR, M/SEC               1382.9   1382.9
 CF                         0.6933   1.4366
 Ivac, M/SEC                1726.3   2199.6
 Isp, M/SEC                  958.8   1986.6

 MASS FRACTIONS

 *CO             0.17498   *CO2            0.15267   *H              0.00007
 *H2             0.00356   H2O             0.11575   *NO             0.00042
 *N2             0.55142   *O              0.00002   *OH             0.00105
 *O2             0.00006

  * THERMODYNAMIC PROPERTIES FITTED TO 20000.K

 NOTE. WEIGHT FRACTION OF FUEL IN TOTAL FUELS AND OF OXIDANT IN TOTAL OXIDANTS

           THEORETICAL ROCKET PERFORMANCE ASSUMING FROZEN COMPOSITION

 Pin =   470.3 PSIA
 CASE = _______________

             REACTANT                    WT FRACTION      ENERGY      TEMP
                                          (SEE NOTE)     KJ/KG-MOL      K  
 FUEL        paraffin                     1.0000000  -1860600.000    298.150
 OXIDANT     N2O                          1.0000000         0.000      0.000

 O/F=    6.50000  %FUEL= 13.333333  R,EQ.RATIO= 1.405927  PHI,EQ.RATIO= 1.405927

                 CHAMBER   THROAT     EXIT
 Pinf/P            1.0000   1.8019   25.969
 P, BAR            32.424   17.995   1.2486
 T, K             2636.35  2345.85  1349.02
 RHO, KG/CU M    3.9203 0 2.4451 0 2.9502-1
 H, KJ/KG         -247.64  -707.36 -2221.24
 U, KJ/KG        -1074.73 -1443.30 -2644.45
 G, KJ/KG        -25220.9 -22928.8 -15000.0
 S, KJ/(KG)(K)     9.4726   9.4726   9.4726

 M, (1/n)          26.503   26.503   26.503
 Cp, KJ/(KG)(K)    1.5921   1.5721   1.4453
 GAMMAs            1.2454   1.2493   1.2773
 SON VEL,M/SEC     1014.9    958.9    735.2
 MACH NUMBER        0.000    1.000    2.702

 PERFORMANCE PARAMETERS

 Ae/At                      1.0000   4.0000
 CSTAR, M/SEC               1383.0   1383.0
 CF                         0.6933   1.4366
 Ivac, M/SEC                1726.4   2199.8
 Isp, M/SEC                  958.9   1986.8

 MASS FRACTIONS

 *CO             0.17498   *CO2            0.15268   *H              0.00006
 *H2             0.00356   H2O             0.11576   *NO             0.00041
 *N2             0.55142   *O              0.00002   *OH             0.00104
 *O2             0.00006

  * THERMODYNAMIC PROPERTIES FITTED TO 20000.K

 NOTE. WEIGHT FRACTION OF FUEL IN TOTAL FUELS AND OF OXIDANT IN TOTAL OXIDANTS

           THEORETICAL ROCKET PERFORMANCE ASSUMING FROZEN COMPOSITION

 Pin =   485.0 PSIA
 CASE = _______________

             REACTANT                    WT FRACTION      ENERGY      TEMP
                                          (SEE NOTE)     KJ/KG-MOL      K  
 FUEL        paraffin                     1.0000000  -1860600.000    298.150
 OXIDANT     N2O                          1.0000000         0.000      0.000

 O/F=    6.50000  %FUEL= 13.333333  R,EQ.RATIO= 1.405927  PHI,EQ.RATIO= 1.405927

                 CHAMBER   THROAT     EXIT
 Pinf/P            1.0000   1.8019   25.968
 P, BAR            33.437   18.557   1.2876
 T, K             2636.70  2346.17  1349.24
 RHO, KG/CU M    4.0424 0 2.5212 0 3.0420-1
 H, KJ/KG         -247.64  -707.40 -2221.45
 U, KJ/KG        -1074.81 -1443.43 -2644.73
 G, KJ/KG        -25198.7 -22909.2 -14989.3
 S, KJ/(KG)(K)     9.4630   9.4630   9.4630

 M, (1/n)          26.504   26.504   26.504
 Cp, KJ/(KG)(K)    1.5921   1.5721   1.4453
 GAMMAs            1.2454   1.2493   1.2772
 SON VEL,M/SEC     1015.0    958.9    735.3
 MACH NUMBER        0.000    1.000    2.702

 PERFORMANCE PARAMETERS

 Ae/At                      1.0000   4.0000
 CSTAR, M/SEC               1383.0   1383.0
 CF                         0.6933   1.4366
 Ivac, M/SEC                1726.5   2199.9
 Isp, M/SEC                  958.9   1986.9

 MASS FRACTIONS

 *CO             0.17497   *CO2            0.15268   *H              0.00006
 *H2             0.00355   H2O             0.11578   *NO             0.00041
 *N2             0.55143   *O              0.00002   *OH             0.00103
 *O2             0.00006

  * THERMODYNAMIC PROPERTIES FITTED TO 20000.K

 NOTE. WEIGHT FRACTION OF FUEL IN TOTAL FUELS AND OF OXIDANT IN TOTAL OXIDANTS

           THEORETICAL ROCKET PERFORMANCE ASSUMING FROZEN COMPOSITION

 Pin =   499.7 PSIA
 CASE = _______________

             REACTANT                    WT FRACTION      ENERGY      TEMP
                                          (SEE NOTE)     KJ/KG-MOL      K  
 FUEL        paraffin                     1.0000000  -1860600.000    298.150
 OXIDANT     N2O                          1.0000000         0.000      0.000

 O/F=    6.50000  %FUEL= 13.333333  R,EQ.RATIO= 1.405927  PHI,EQ.RATIO= 1.405927

                 CHAMBER   THROAT     EXIT
 Pinf/P            1.0000   1.8019   25.967
 P, BAR            34.450   19.119   1.3267
 T, K             2637.03  2346.48  1349.46
 RHO, KG/CU M    4.1645 0 2.5974 0 3.1339-1
 H, KJ/KG         -247.64  -707.44 -2221.66
 U, KJ/KG        -1074.89 -1443.55 -2644.99
 G, KJ/KG        -25177.1 -22890.2 -14979.0
 S, KJ/(KG)(K)     9.4536   9.4536   9.4536

 M, (1/n)          26.504   26.504   26.504
 Cp, KJ/(KG)(K)    1.5921   1.5721   1.4453
 GAMMAs            1.2454   1.2493   1.2772
 SON VEL,M/SEC     1015.0    959.0    735.3
 MACH NUMBER        0.000    1.000    2.702

 PERFORMANCE PARAMETERS

 Ae/At                      1.0000   4.0000
 CSTAR, M/SEC               1383.1   1383.1
 CF                         0.6933   1.4366
 Ivac, M/SEC                1726.6   2200.0
 Isp, M/SEC                  959.0   1987.0

 MASS FRACTIONS

 *CO             0.17497   *CO2            0.15269   *H              0.00006
 *H2             0.00355   H2O             0.11580   *NO             0.00040
 *N2             0.55143   *O              0.00002   *OH             0.00101
 *O2             0.00006

  * THERMODYNAMIC PROPERTIES FITTED TO 20000.K

 NOTE. WEIGHT FRACTION OF FUEL IN TOTAL FUELS AND OF OXIDANT IN TOTAL OXIDANTS

           THEORETICAL ROCKET PERFORMANCE ASSUMING FROZEN COMPOSITION

 Pin =   514.4 PSIA
 CASE = _______________

             REACTANT                    WT FRACTION      ENERGY      TEMP
                                          (SEE NOTE)     KJ/KG-MOL      K  
 FUEL        paraffin                     1.0000000  -1860600.000    298.150
 OXIDANT     N2O                          1.0000000         0.000      0.000

 O/F=    6.50000  %FUEL= 13.333333  R,EQ.RATIO= 1.405927  PHI,EQ.RATIO= 1.405927

                 CHAMBER   THROAT     EXIT
 Pinf/P            1.0000   1.8019   25.967
 P, BAR            35.464   19.682   1.3657
 T, K             2637.34  2346.77  1349.67
 RHO, KG/CU M    4.2865 0 2.6735 0 3.2258-1
 H, KJ/KG         -247.64  -707.49 -2221.86
 U, KJ/KG        -1074.97 -1443.66 -2645.25
 G, KJ/KG        -25156.1 -22871.7 -14968.9
 S, KJ/(KG)(K)     9.4445   9.4445   9.4445

 M, (1/n)          26.505   26.505   26.505
 Cp, KJ/(KG)(K)    1.5922   1.5722   1.4454
 GAMMAs            1.2454   1.2493   1.2772
 SON VEL,M/SEC     1015.1    959.0    735.4
 MACH NUMBER        0.000    1.000    2.702

 PERFORMANCE PARAMETERS

 Ae/At                     1.00000   4.0000
 CSTAR, M/SEC               1383.2   1383.2
 CF                         0.6933   1.4366
 Ivac, M/SEC                1726.6   2200.1
 Isp, M/SEC                  959.0   1987.1

 MASS FRACTIONS

 *CO             0.17496   *CO2            0.15270   *H              0.00006
 *H2             0.00355   H2O             0.11581   *NO             0.00040
 *N2             0.55143   *O              0.00002   *OH             0.00100
 *O2             0.00006

  * THERMODYNAMIC PROPERTIES FITTED TO 20000.K

 NOTE. WEIGHT FRACTION OF FUEL IN TOTAL FUELS AND OF OXIDANT IN TOTAL OXIDANTS

           THEORETICAL ROCKET PERFORMANCE ASSUMING FROZEN COMPOSITION

 Pin =   529.1 PSIA
 CASE = _______________

             REACTANT                    WT FRACTION      ENERGY      TEMP
                                          (SEE NOTE)     KJ/KG-MOL      K  
 FUEL        paraffin                     1.0000000  -1860600.000    298.150
 OXIDANT     N2O                          1.0000000         0.000      0.000

 O/F=    6.50000  %FUEL= 13.333333  R,EQ.RATIO= 1.405927  PHI,EQ.RATIO= 1.405927

                 CHAMBER   THROAT     EXIT
 Pinf/P            1.0000   1.8018   25.966
 P, BAR            36.477   20.244   1.4048
 T, K             2637.65  2347.05  1349.87
 RHO, KG/CU M    4.4086 0 2.7497 0 3.3176-1
 H, KJ/KG         -247.64  -707.53 -2222.05
 U, KJ/KG        -1075.05 -1443.77 -2645.49
 G, KJ/KG        -25135.7 -22853.6 -14959.0
 S, KJ/(KG)(K)     9.4357   9.4357   9.4357

 M, (1/n)          26.506   26.506   26.506
 Cp, KJ/(KG)(K)    1.5922   1.5722   1.4454
 GAMMAs            1.2454   1.2493   1.2772
 SON VEL,M/SEC     1015.1    959.0    735.4
 MACH NUMBER        0.000    1.000    2.702

 PERFORMANCE PARAMETERS

 Ae/At                      1.0000   4.0000
 CSTAR, M/SEC               1383.3   1383.3
 CF                         0.6933   1.4366
 Ivac, M/SEC                1726.7   2200.2
 Isp, M/SEC                  959.0   1987.2

 MASS FRACTIONS

 *CO             0.17496   *CO2            0.15270   *H              0.00006
 *H2             0.00355   H2O             0.11583   *NO             0.00039
 *N2             0.55143   *O              0.00002   *OH             0.00099
 *O2             0.00005

  * THERMODYNAMIC PROPERTIES FITTED TO 20000.K

 NOTE. WEIGHT FRACTION OF FUEL IN TOTAL FUELS AND OF OXIDANT IN TOTAL OXIDANTS

           THEORETICAL ROCKET PERFORMANCE ASSUMING FROZEN COMPOSITION

 Pin =   543.8 PSIA
 CASE = _______________

             REACTANT                    WT FRACTION      ENERGY      TEMP
                                          (SEE NOTE)     KJ/KG-MOL      K  
 FUEL        paraffin                     1.0000000  -1860600.000    298.150
 OXIDANT     N2O                          1.0000000         0.000      0.000

 O/F=    6.50000  %FUEL= 13.333333  R,EQ.RATIO= 1.405927  PHI,EQ.RATIO= 1.405927

                 CHAMBER   THROAT     EXIT
 Pinf/P            1.0000   1.8018   25.965
 P, BAR            37.490   20.807   1.4439
 T, K             2637.94  2347.33  1350.06
 RHO, KG/CU M    4.5307 0 2.8258 0 3.4094-1
 H, KJ/KG         -247.64  -707.56 -2222.23
 U, KJ/KG        -1075.12 -1443.88 -2645.72
 G, KJ/KG        -25115.8 -22836.0 -14949.4
 S, KJ/(KG)(K)     9.4271   9.4271   9.4271

 M, (1/n)          26.506   26.506   26.506
 Cp, KJ/(KG)(K)    1.5922   1.5722   1.4454
 GAMMAs            1.2453   1.2492   1.2772
 SON VEL,M/SEC     1015.1    959.1    735.4
 MACH NUMBER        0.000    1.000    2.702

 PERFORMANCE PARAMETERS

 Ae/At                      1.0000   4.0000
 CSTAR, M/SEC               1383.3   1383.3
 CF                         0.6933   1.4366
 Ivac, M/SEC                1726.8   2200.4
 Isp, M/SEC                  959.1   1987.3

 MASS FRACTIONS

 *CO             0.17495   *CO2            0.15271   *H              0.00006
 *H2             0.00355   H2O             0.11584   *NO             0.00039
 *N2             0.55144   *O              0.00002   *OH             0.00098
 *O2             0.00005

  * THERMODYNAMIC PROPERTIES FITTED TO 20000.K

 NOTE. WEIGHT FRACTION OF FUEL IN TOTAL FUELS AND OF OXIDANT IN TOTAL OXIDANTS

           THEORETICAL ROCKET PERFORMANCE ASSUMING FROZEN COMPOSITION

 Pin =   558.4 PSIA
 CASE = _______________

             REACTANT                    WT FRACTION      ENERGY      TEMP
                                          (SEE NOTE)     KJ/KG-MOL      K  
 FUEL        paraffin                     1.0000000  -1860600.000    298.150
 OXIDANT     N2O                          1.0000000         0.000      0.000

 O/F=    6.50000  %FUEL= 13.333333  R,EQ.RATIO= 1.405927  PHI,EQ.RATIO= 1.405927

                 CHAMBER   THROAT     EXIT
 Pinf/P            1.0000   1.8018   25.965
 P, BAR            38.504   21.369   1.4829
 T, K             2638.22  2347.59  1350.25
 RHO, KG/CU M    4.6527 0 2.9019 0 3.5013-1
 H, KJ/KG         -247.64  -707.60 -2222.41
 U, KJ/KG        -1075.19 -1443.98 -2645.95
 G, KJ/KG        -25096.3 -22818.9 -14940.0
 S, KJ/(KG)(K)     9.4187   9.4187   9.4187

 M, (1/n)          26.507   26.507   26.507
 Cp, KJ/(KG)(K)    1.5922   1.5722   1.4455
 GAMMAs            1.2453   1.2492   1.2771
 SON VEL,M/SEC     1015.2    959.1    735.5
 MACH NUMBER        0.000    1.000    2.702

 PERFORMANCE PARAMETERS

 Ae/At                      1.0000   4.0000
 CSTAR, M/SEC               1383.4   1383.4
 CF                         0.6933   1.4366
 Ivac, M/SEC                1726.9   2200.5
 Isp, M/SEC                  959.1   1987.3

 MASS FRACTIONS

 *CO             0.17495   *CO2            0.15272   *H              0.00006
 *H2             0.00355   H2O             0.11586   *NO             0.00038
 *N2             0.55144   *O              0.00002   *OH             0.00096
 *O2             0.00005

  * THERMODYNAMIC PROPERTIES FITTED TO 20000.K

 NOTE. WEIGHT FRACTION OF FUEL IN TOTAL FUELS AND OF OXIDANT IN TOTAL OXIDANTS

           THEORETICAL ROCKET PERFORMANCE ASSUMING FROZEN COMPOSITION

 Pin =   573.1 PSIA
 CASE = _______________

             REACTANT                    WT FRACTION      ENERGY      TEMP
                                          (SEE NOTE)     KJ/KG-MOL      K  
 FUEL        paraffin                     1.0000000  -1860600.000    298.150
 OXIDANT     N2O                          1.0000000         0.000      0.000

 O/F=    6.50000  %FUEL= 13.333333  R,EQ.RATIO= 1.405927  PHI,EQ.RATIO= 1.405927

                 CHAMBER   THROAT     EXIT
 Pinf/P            1.0000   1.8018   25.964
 P, BAR            39.517   21.931   1.5220
 T, K             2638.49  2347.84  1350.43
 RHO, KG/CU M    4.7748 0 2.9780 0 3.5931-1
 H, KJ/KG         -247.64  -707.64 -2222.58
 U, KJ/KG        -1075.25 -1444.08 -2646.16
 G, KJ/KG        -25077.4 -22802.2 -14930.9
 S, KJ/(KG)(K)     9.4106   9.4106   9.4106

 M, (1/n)          26.507   26.507   26.507
 Cp, KJ/(KG)(K)    1.5922   1.5722   1.4455
 GAMMAs            1.2453   1.2492   1.2771
 SON VEL,M/SEC     1015.2    959.2    735.5
 MACH NUMBER        0.000    1.000    2.702

 PERFORMANCE PARAMETERS

 Ae/At                      1.0000   4.0000
 CSTAR, M/SEC               1383.4   1383.4
 CF                         0.6933   1.4366
 Ivac, M/SEC                1727.0   2200.6
 Isp, M/SEC                  959.2   1987.4

 MASS FRACTIONS

 *CO             0.17495   *CO2            0.15272   *H              0.00006
 *H2             0.00355   H2O             0.11587   *NO             0.00038
 *N2             0.55144   *O              0.00002   *OH             0.00095
 *O2             0.00005

  * THERMODYNAMIC PROPERTIES FITTED TO 20000.K

 NOTE. WEIGHT FRACTION OF FUEL IN TOTAL FUELS AND OF OXIDANT IN TOTAL OXIDANTS

           THEORETICAL ROCKET PERFORMANCE ASSUMING FROZEN COMPOSITION

 Pin =   587.8 PSIA
 CASE = _______________

             REACTANT                    WT FRACTION      ENERGY      TEMP
                                          (SEE NOTE)     KJ/KG-MOL      K  
 FUEL        paraffin                     1.0000000  -1860600.000    298.150
 OXIDANT     N2O                          1.0000000         0.000      0.000

 O/F=    6.50000  %FUEL= 13.333333  R,EQ.RATIO= 1.405927  PHI,EQ.RATIO= 1.405927

                 CHAMBER   THROAT     EXIT
 Pinf/P            1.0000   1.8018   25.963
 P, BAR            40.530   22.494   1.5610
 T, K             2638.75  2348.08  1350.60
 RHO, KG/CU M    4.8968 0 3.0542 0 3.6849-1
 H, KJ/KG         -247.64  -707.67 -2222.74
 U, KJ/KG        -1075.32 -1444.17 -2646.37
 G, KJ/KG        -25058.9 -22785.8 -14921.9
 S, KJ/(KG)(K)     9.4026   9.4026   9.4026

 M, (1/n)          26.508   26.508   26.508
 Cp, KJ/(KG)(K)    1.5922   1.5723   1.4455
 GAMMAs            1.2453   1.2492   1.2771
 SON VEL,M/SEC     1015.2    959.2    735.5
 MACH NUMBER        0.000    1.000    2.702

 PERFORMANCE PARAMETERS

 Ae/At                      1.0000   4.0000
 CSTAR, M/SEC               1383.5   1383.5
 CF                         0.6933   1.4366
 Ivac, M/SEC                1727.0   2200.7
 Isp, M/SEC                  959.2   1987.5

 MASS FRACTIONS

 *CO             0.17494   *CO2            0.15273   *H              0.00006
 *H2             0.00355   H2O             0.11588   *NO             0.00037
 *N2             0.55144   *O              0.00002   *OH             0.00094
 *O2             0.00005

  * THERMODYNAMIC PROPERTIES FITTED TO 20000.K

 NOTE. WEIGHT FRACTION OF FUEL IN TOTAL FUELS AND OF OXIDANT IN TOTAL OXIDANTS

           THEORETICAL ROCKET PERFORMANCE ASSUMING FROZEN COMPOSITION

 Pin =   602.5 PSIA
 CASE = _______________

             REACTANT                    WT FRACTION      ENERGY      TEMP
                                          (SEE NOTE)     KJ/KG-MOL      K  
 FUEL        paraffin                     1.0000000  -1860600.000    298.150
 OXIDANT     N2O                          1.0000000         0.000      0.000

 O/F=    6.50000  %FUEL= 13.333333  R,EQ.RATIO= 1.405927  PHI,EQ.RATIO= 1.405927

                 CHAMBER   THROAT     EXIT
 Pinf/P            1.0000   1.8018   25.963
 P, BAR            41.543   23.056   1.6001
 T, K             2639.00  2348.31  1350.76
 RHO, KG/CU M    5.0189 0 3.1303 0 3.7767-1
 H, KJ/KG         -247.64  -707.70 -2222.90
 U, KJ/KG        -1075.38 -1444.26 -2646.57
 G, KJ/KG        -25040.8 -22769.9 -14913.2
 S, KJ/(KG)(K)     9.3949   9.3949   9.3949

 M, (1/n)          26.508   26.508   26.508
 Cp, KJ/(KG)(K)    1.5923   1.5723   1.4456
 GAMMAs            1.2453   1.2492   1.2771
 SON VEL,M/SEC     1015.3    959.2    735.6
 MACH NUMBER        0.000    1.000    2.702

 PERFORMANCE PARAMETERS

 Ae/At                      1.0000   4.0000
 CSTAR, M/SEC               1383.6   1383.6
 CF                         0.6933   1.4366
 Ivac, M/SEC                1727.1   2200.7
 Isp, M/SEC                  959.2   1987.6

 MASS FRACTIONS

 *CO             0.17494   *CO2            0.15273   *H              0.00006
 *H2             0.00355   H2O             0.11590   *NO             0.00037
 *N2             0.55144   *O              0.00002   *OH             0.00093
 *O2             0.00005

  * THERMODYNAMIC PROPERTIES FITTED TO 20000.K

 NOTE. WEIGHT FRACTION OF FUEL IN TOTAL FUELS AND OF OXIDANT IN TOTAL OXIDANTS

           THEORETICAL ROCKET PERFORMANCE ASSUMING FROZEN COMPOSITION

 Pin =   617.2 PSIA
 CASE = _______________

             REACTANT                    WT FRACTION      ENERGY      TEMP
                                          (SEE NOTE)     KJ/KG-MOL      K  
 FUEL        paraffin                     1.0000000  -1860600.000    298.150
 OXIDANT     N2O                          1.0000000         0.000      0.000

 O/F=    6.50000  %FUEL= 13.333333  R,EQ.RATIO= 1.405927  PHI,EQ.RATIO= 1.405927

                 CHAMBER   THROAT     EXIT
 Pinf/P            1.0000   1.8018   25.962
 P, BAR            42.556   23.619   1.6392
 T, K             2639.24  2348.54  1350.93
 RHO, KG/CU M    5.1409 0 3.2064 0 3.8686-1
 H, KJ/KG         -247.64  -707.73 -2223.05
 U, KJ/KG        -1075.44 -1444.35 -2646.76
 G, KJ/KG        -25023.1 -22754.3 -14904.6
 S, KJ/(KG)(K)     9.3873   9.3873   9.3873

 M, (1/n)          26.509   26.509   26.509
 Cp, KJ/(KG)(K)    1.5923   1.5723   1.4456
 GAMMAs            1.2453   1.2492   1.2771
 SON VEL,M/SEC     1015.3    959.3    735.6
 MACH NUMBER        0.000    1.000    2.702

 PERFORMANCE PARAMETERS

 Ae/At                      1.0000   4.0000
 CSTAR, M/SEC               1383.6   1383.6
 CF                         0.6933   1.4366
 Ivac, M/SEC                1727.2   2200.8
 Isp, M/SEC                  959.3   1987.7

 MASS FRACTIONS

 *CO             0.17493   *CO2            0.15274   *H              0.00006
 *H2             0.00355   H2O             0.11591   *NO             0.00037
 *N2             0.55144   *O              0.00002   *OH             0.00092
 *O2             0.00005

  * THERMODYNAMIC PROPERTIES FITTED TO 20000.K

 NOTE. WEIGHT FRACTION OF FUEL IN TOTAL FUELS AND OF OXIDANT IN TOTAL OXIDANTS

           THEORETICAL ROCKET PERFORMANCE ASSUMING FROZEN COMPOSITION

 Pin =   631.9 PSIA
 CASE = _______________

             REACTANT                    WT FRACTION      ENERGY      TEMP
                                          (SEE NOTE)     KJ/KG-MOL      K  
 FUEL        paraffin                     1.0000000  -1860600.000    298.150
 OXIDANT     N2O                          1.0000000         0.000      0.000

 O/F=    6.50000  %FUEL= 13.333333  R,EQ.RATIO= 1.405927  PHI,EQ.RATIO= 1.405927

                 CHAMBER   THROAT     EXIT
 Pinf/P            1.0000   1.8018   25.962
 P, BAR            43.570   24.181   1.6782
 T, K             2639.48  2348.75  1351.08
 RHO, KG/CU M    5.2630 0 3.2825 0 3.9604-1
 H, KJ/KG         -247.64  -707.76 -2223.19
 U, KJ/KG        -1075.50 -1444.44 -2646.95
 G, KJ/KG        -25005.9 -22739.0 -14896.3
 S, KJ/(KG)(K)     9.3800   9.3800   9.3800

 M, (1/n)          26.509   26.509   26.509
 Cp, KJ/(KG)(K)    1.5923   1.5723   1.4456
 GAMMAs            1.2453   1.2492   1.2771
 SON VEL,M/SEC     1015.3    959.3    735.6
 MACH NUMBER        0.000    1.000    2.702

 PERFORMANCE PARAMETERS

 Ae/At                      1.0000   4.0000
 CSTAR, M/SEC               1383.7   1383.7
 CF                         0.6933   1.4366
 Ivac, M/SEC                1727.2   2200.9
 Isp, M/SEC                  959.3   1987.7

 MASS FRACTIONS

 *CO             0.17493   *CO2            0.15275   *H              0.00006
 *H2             0.00355   H2O             0.11592   *NO             0.00036
 *N2             0.55145   *O              0.00002   *OH             0.00091
 *O2             0.00005

  * THERMODYNAMIC PROPERTIES FITTED TO 20000.K

 NOTE. WEIGHT FRACTION OF FUEL IN TOTAL FUELS AND OF OXIDANT IN TOTAL OXIDANTS

           THEORETICAL ROCKET PERFORMANCE ASSUMING FROZEN COMPOSITION

 Pin =   646.6 PSIA
 CASE = _______________

             REACTANT                    WT FRACTION      ENERGY      TEMP
                                          (SEE NOTE)     KJ/KG-MOL      K  
 FUEL        paraffin                     1.0000000  -1860600.000    298.150
 OXIDANT     N2O                          1.0000000         0.000      0.000

 O/F=    6.50000  %FUEL= 13.333333  R,EQ.RATIO= 1.405927  PHI,EQ.RATIO= 1.405927

                 CHAMBER   THROAT     EXIT
 Pinf/P            1.0000   1.8018   25.961
 P, BAR            44.583   24.744   1.7173
 T, K             2639.70  2348.97  1351.23
 RHO, KG/CU M    5.3850 0 3.3586 0 4.0522-1
 H, KJ/KG         -247.64  -707.79 -2223.34
 U, KJ/KG        -1075.55 -1444.52 -2647.13
 G, KJ/KG        -24988.9 -22724.1 -14888.1
 S, KJ/(KG)(K)     9.3728   9.3728   9.3728

 M, (1/n)          26.510   26.510   26.510
 Cp, KJ/(KG)(K)    1.5923   1.5723   1.4456
 GAMMAs            1.2453   1.2492   1.2771
 SON VEL,M/SEC     1015.4    959.3    735.7
 MACH NUMBER        0.000    1.000    2.702

 PERFORMANCE PARAMETERS

 Ae/At                      1.0000   4.0000
 CSTAR, M/SEC               1383.7   1383.7
 CF                         0.6933   1.4366
 Ivac, M/SEC                1727.3   2201.0
 Isp, M/SEC                  959.3   1987.8

 MASS FRACTIONS

 *CO             0.17493   *CO2            0.15275   *H              0.00006
 *H2             0.00355   H2O             0.11593   *NO             0.00036
 *N2             0.55145   *O              0.00002   *OH             0.00090
 *O2             0.00005

  * THERMODYNAMIC PROPERTIES FITTED TO 20000.K

 NOTE. WEIGHT FRACTION OF FUEL IN TOTAL FUELS AND OF OXIDANT IN TOTAL OXIDANTS

           THEORETICAL ROCKET PERFORMANCE ASSUMING FROZEN COMPOSITION

 Pin =   661.3 PSIA
 CASE = _______________

             REACTANT                    WT FRACTION      ENERGY      TEMP
                                          (SEE NOTE)     KJ/KG-MOL      K  
 FUEL        paraffin                     1.0000000  -1860600.000    298.150
 OXIDANT     N2O                          1.0000000         0.000      0.000

 O/F=    6.50000  %FUEL= 13.333333  R,EQ.RATIO= 1.405927  PHI,EQ.RATIO= 1.405927

                 CHAMBER   THROAT     EXIT
 Pinf/P            1.0000   1.8018   25.961
 P, BAR            45.596   25.306   1.7564
 T, K             2639.92  2349.17  1351.37
 RHO, KG/CU M    5.5070 0 3.4347 0 4.1440-1
 H, KJ/KG         -247.64  -707.82 -2223.47
 U, KJ/KG        -1075.61 -1444.60 -2647.31
[...]
 OXIDANT     N2O                          1.0000000         0.000      0.000

 O/F=   11.00000  %FUEL=  8.333333  R,EQ.RATIO= 0.830775  PHI,EQ.RATIO= 0.830775

                 CHAMBER   THROAT     EXIT
 Pinf/P            1.0000   1.7948   25.266
 P, BAR            38.504   21.453   1.5239
 T, K             2704.26  2418.47  1430.80
 RHO, KG/CU M    5.0122 0 3.1227 0 3.7494-1
 H, KJ/KG         -154.78  -579.93 -1997.91
 U, KJ/KG         -922.97 -1266.94 -2404.36
 G, KJ/KG        -23897.9 -21813.9 -14560.2
 S, KJ/(KG)(K)     8.7799   8.7799   8.7799

 M, (1/n)          29.269   29.269   29.269
 Cp, KJ/(KG)(K)    1.4956   1.4792   1.3761
 GAMMAs            1.2345   1.2377   1.2601
 SON VEL,M/SEC      973.8    922.1    715.7
 MACH NUMBER        0.000    1.000    2.683

 PERFORMANCE PARAMETERS

 Ae/At                      1.0000   4.0000
 CSTAR, M/SEC               1337.2   1337.2
 CF                         0.6896   1.4359
 Ivac, M/SEC                1667.2   2131.7
 Isp, M/SEC                  922.1   1920.0

 MASS FRACTIONS

 *CO             0.01156   *CO2            0.24908   *H              0.00001
 HO2             0.00003   *H2             0.00011   H2O             0.08889
 *NO             0.01383   NO2             0.00005   *N2             0.57697
 N2O             0.00001   *O              0.00071   *OH             0.00556
 *O2             0.05319

  * THERMODYNAMIC PROPERTIES FITTED TO 20000.K

 NOTE. WEIGHT FRACTION OF FUEL IN TOTAL FUELS AND OF OXIDANT IN TOTAL OXIDANTS

           THEORETICAL ROCKET PERFORMANCE ASSUMING FROZEN COMPOSITION

 Pin =   573.1 PSIA
 CASE = _______________

             REACTANT                    WT FRACTION      ENERGY      TEMP
                                          (SEE NOTE)     KJ/KG-MOL      K  
 FUEL        paraffin                     1.0000000  -1860600.000    298.150
 OXIDANT     N2O                          1.0000000         0.000      0.000

 O/F=   11.00000  %FUEL=  8.333333  R,EQ.RATIO= 0.830775  PHI,EQ.RATIO= 0.830775

                 CHAMBER   THROAT     EXIT
 Pinf/P            1.0000   1.7947   25.264
 P, BAR            39.517   22.018   1.5642
 T, K             2705.17  2419.32  1431.43
 RHO, KG/CU M    5.1428 0 3.2040 0 3.8470-1
 H, KJ/KG         -154.78  -580.04 -1998.43
 U, KJ/KG         -923.17 -1267.24 -2405.02
 G, KJ/KG        -23885.9 -21803.6 -14555.7
 S, KJ/(KG)(K)     8.7725   8.7725   8.7725

 M, (1/n)          29.272   29.272   29.272
 Cp, KJ/(KG)(K)    1.4956   1.4792   1.3762
 GAMMAs            1.2344   1.2377   1.2601
 SON VEL,M/SEC      973.9    922.2    715.8
 MACH NUMBER        0.000    1.000    2.683

 PERFORMANCE PARAMETERS

 Ae/At                      1.0000   4.0000
 CSTAR, M/SEC               1337.3   1337.3
 CF                         0.6896   1.4359
 Ivac, M/SEC                1667.4   2132.0
 Isp, M/SEC                  922.2   1920.2

 MASS FRACTIONS

 *CO             0.01147   *CO2            0.24923   *H              0.00001
 HO2             0.00003   *H2             0.00011   H2O             0.08891
 *NO             0.01384   NO2             0.00005   *N2             0.57696
 N2O             0.00001   *O              0.00071   *OH             0.00553
 *O2             0.05314

  * THERMODYNAMIC PROPERTIES FITTED TO 20000.K

 NOTE. WEIGHT FRACTION OF FUEL IN TOTAL FUELS AND OF OXIDANT IN TOTAL OXIDANTS

           THEORETICAL ROCKET PERFORMANCE ASSUMING FROZEN COMPOSITION

 Pin =   587.8 PSIA
 CASE = _______________

             REACTANT                    WT FRACTION      ENERGY      TEMP
                                          (SEE NOTE)     KJ/KG-MOL      K  
 FUEL        paraffin                     1.0000000  -1860600.000    298.150
 OXIDANT     N2O                          1.0000000         0.000      0.000

 O/F=   11.00000  %FUEL=  8.333333  R,EQ.RATIO= 0.830775  PHI,EQ.RATIO= 0.830775

                 CHAMBER   THROAT     EXIT
 Pinf/P            1.0000   1.7947   25.262
 P, BAR            40.530   22.583   1.6044
 T, K             2706.05  2420.15  1432.04
 RHO, KG/CU M    5.2733 0 3.2853 0 3.9446-1
 H, KJ/KG         -154.78  -580.14 -1998.92
 U, KJ/KG         -923.37 -1267.53 -2405.66
 G, KJ/KG        -23874.2 -21793.6 -14551.2
 S, KJ/(KG)(K)     8.7653   8.7653   8.7653

 M, (1/n)          29.274   29.274   29.274
 Cp, KJ/(KG)(K)    1.4957   1.4793   1.3763
 GAMMAs            1.2344   1.2376   1.2600
 SON VEL,M/SEC      974.0    922.3    715.9
 MACH NUMBER        0.000    1.000    2.683

 PERFORMANCE PARAMETERS

 Ae/At                     1.00000   4.0000
 CSTAR, M/SEC               1337.5   1337.5
 CF                         0.6896   1.4359
 Ivac, M/SEC                1667.6   2132.3
 Isp, M/SEC                  922.3   1920.5

 MASS FRACTIONS

 *CO             0.01138   *CO2            0.24937   *H              0.00001
 HO2             0.00003   *H2             0.00011   H2O             0.08893
 *NO             0.01385   NO2             0.00005   *N2             0.57696
 N2O             0.00001   *O              0.00070   *OH             0.00551
 *O2             0.05310

  * THERMODYNAMIC PROPERTIES FITTED TO 20000.K

 NOTE. WEIGHT FRACTION OF FUEL IN TOTAL FUELS AND OF OXIDANT IN TOTAL OXIDANTS

           THEORETICAL ROCKET PERFORMANCE ASSUMING FROZEN COMPOSITION

 Pin =   602.5 PSIA
 CASE = _______________

             REACTANT                    WT FRACTION      ENERGY      TEMP
                                          (SEE NOTE)     KJ/KG-MOL      K  
 FUEL        paraffin                     1.0000000  -1860600.000    298.150
 OXIDANT     N2O                          1.0000000         0.000      0.000

 O/F=   11.00000  %FUEL=  8.333333  R,EQ.RATIO= 0.830775  PHI,EQ.RATIO= 0.830775

                 CHAMBER   THROAT     EXIT
 Pinf/P            1.0000   1.7947   25.260
 P, BAR            41.543   23.148   1.6447
 T, K             2706.90  2420.95  1432.63
 RHO, KG/CU M    5.4038 0 3.3666 0 4.0421-1
 H, KJ/KG         -154.78  -580.24 -1999.41
 U, KJ/KG         -923.55 -1267.80 -2406.28
 G, KJ/KG        -23862.7 -21783.7 -14546.9
 S, KJ/(KG)(K)     8.7583   8.7583   8.7583

 M, (1/n)          29.276   29.276   29.276
 Cp, KJ/(KG)(K)    1.4958   1.4794   1.3764
 GAMMAs            1.2344   1.2376   1.2600
 SON VEL,M/SEC      974.1    922.5    716.0
 MACH NUMBER        0.000    1.000    2.683

 PERFORMANCE PARAMETERS

 Ae/At                      1.0000   4.0000
 CSTAR, M/SEC               1337.7   1337.7
 CF                         0.6896   1.4359
 Ivac, M/SEC                1667.8   2132.6
 Isp, M/SEC                  922.5   1920.7

 MASS FRACTIONS

 *CO             0.01130   *CO2            0.24950   *H              0.00001
 HO2             0.00003   *H2             0.00011   H2O             0.08895
 *NO             0.01386   NO2             0.00005   *N2             0.57695
 N2O             0.00001   *O              0.00069   *OH             0.00549
 *O2             0.05305

  * THERMODYNAMIC PROPERTIES FITTED TO 20000.K

 NOTE. WEIGHT FRACTION OF FUEL IN TOTAL FUELS AND OF OXIDANT IN TOTAL OXIDANTS

           THEORETICAL ROCKET PERFORMANCE ASSUMING FROZEN COMPOSITION

 Pin =   617.2 PSIA
 CASE = _______________

             REACTANT                    WT FRACTION      ENERGY      TEMP
                                          (SEE NOTE)     KJ/KG-MOL      K  
 FUEL        paraffin                     1.0000000  -1860600.000    298.150
 OXIDANT     N2O                          1.0000000         0.000      0.000

 O/F=   11.00000  %FUEL=  8.333333  R,EQ.RATIO= 0.830775  PHI,EQ.RATIO= 0.830775

                 CHAMBER   THROAT     EXIT
 Pinf/P            1.0000   1.7947   25.258
 P, BAR            42.556   23.713   1.6849
 T, K             2707.73  2421.72  1433.21
 RHO, KG/CU M    5.5343 0 3.4479 0 4.1397-1
 H, KJ/KG         -154.78  -580.34 -1999.87
 U, KJ/KG         -923.74 -1268.07 -2406.89
 G, KJ/KG        -23851.5 -21774.0 -14542.6
 S, KJ/(KG)(K)     8.7515   8.7515   8.7515

 M, (1/n)          29.278   29.278   29.278
 Cp, KJ/(KG)(K)    1.4958   1.4794   1.3765
 GAMMAs            1.2343   1.2376   1.2599
 SON VEL,M/SEC      974.3    922.6    716.1
 MACH NUMBER        0.000    1.000    2.683

 PERFORMANCE PARAMETERS

 Ae/At                      1.0000   4.0000
 CSTAR, M/SEC               1337.9   1337.9
 CF                         0.6896   1.4359
 Ivac, M/SEC                1668.0   2132.9
 Isp, M/SEC                  922.6   1921.0

 MASS FRACTIONS

 *CO             0.01122   *CO2            0.24963   *H              0.00001
 HO2             0.00003   *H2             0.00010   H2O             0.08897
 *NO             0.01387   NO2             0.00005   *N2             0.57695
 N2O             0.00001   *O              0.00069   *OH             0.00547
 *O2             0.05300

  * THERMODYNAMIC PROPERTIES FITTED TO 20000.K

 NOTE. WEIGHT FRACTION OF FUEL IN TOTAL FUELS AND OF OXIDANT IN TOTAL OXIDANTS

           THEORETICAL ROCKET PERFORMANCE ASSUMING FROZEN COMPOSITION

 Pin =   631.9 PSIA
 CASE = _______________

             REACTANT                    WT FRACTION      ENERGY      TEMP
                                          (SEE NOTE)     KJ/KG-MOL      K  
 FUEL        paraffin                     1.0000000  -1860600.000    298.150
 OXIDANT     N2O                          1.0000000         0.000      0.000

 O/F=   11.00000  %FUEL=  8.333333  R,EQ.RATIO= 0.830775  PHI,EQ.RATIO= 0.830775

                 CHAMBER   THROAT     EXIT
 Pinf/P            1.0000   1.7947   25.256
 P, BAR            43.570   24.277   1.7251
 T, K             2708.54  2422.48  1433.77
 RHO, KG/CU M    5.6647 0 3.5292 0 4.2372-1
 H, KJ/KG         -154.78  -580.43 -2000.33
 U, KJ/KG         -923.92 -1268.34 -2407.47
 G, KJ/KG        -23840.4 -21764.6 -14538.3
 S, KJ/(KG)(K)     8.7448   8.7448   8.7448

 M, (1/n)          29.280   29.280   29.280
 Cp, KJ/(KG)(K)    1.4959   1.4795   1.3766
 GAMMAs            1.2343   1.2375   1.2599
 SON VEL,M/SEC      974.4    922.7    716.2
 MACH NUMBER        0.000    1.000    2.682

 PERFORMANCE PARAMETERS

 Ae/At                      1.0000   4.0000
 CSTAR, M/SEC               1338.0   1338.0
 CF                         0.6896   1.4359
 Ivac, M/SEC                1668.2   2133.1
 Isp, M/SEC                  922.7   1921.2

 MASS FRACTIONS

 *CO             0.01113   *CO2            0.24976   *H              0.00001
 HO2             0.00003   *H2             0.00010   H2O             0.08899
 *NO             0.01388   NO2             0.00005   *N2             0.57694
 N2O             0.00001   *O              0.00068   *OH             0.00545
 *O2             0.05296

  * THERMODYNAMIC PROPERTIES FITTED TO 20000.K

 NOTE. WEIGHT FRACTION OF FUEL IN TOTAL FUELS AND OF OXIDANT IN TOTAL OXIDANTS

           THEORETICAL ROCKET PERFORMANCE ASSUMING FROZEN COMPOSITION

 Pin =   646.6 PSIA
 CASE = _______________

             REACTANT                    WT FRACTION      ENERGY      TEMP
                                          (SEE NOTE)     KJ/KG-MOL      K  
 FUEL        paraffin                     1.0000000  -1860600.000    298.150
 OXIDANT     N2O                          1.0000000         0.000      0.000

 O/F=   11.00000  %FUEL=  8.333333  R,EQ.RATIO= 0.830775  PHI,EQ.RATIO= 0.830775

                 CHAMBER   THROAT     EXIT
 Pinf/P            1.0000   1.7946   25.254
 P, BAR            44.583   24.842   1.7654
 T, K             2709.32  2423.22  1434.31
 RHO, KG/CU M    5.7952 0 3.6104 0 4.3347-1
 H, KJ/KG         -154.78  -580.52 -2000.77
 U, KJ/KG         -924.09 -1268.59 -2408.05
 G, KJ/KG        -23829.6 -21755.3 -14534.2
 S, KJ/(KG)(K)     8.7383   8.7383   8.7383

 M, (1/n)          29.282   29.282   29.282
 Cp, KJ/(KG)(K)    1.4959   1.4796   1.3767
 GAMMAs            1.2343   1.2375   1.2598
 SON VEL,M/SEC      974.4    922.8    716.3
 MACH NUMBER        0.000    1.000    2.682

 PERFORMANCE PARAMETERS

 Ae/At                      1.0000   4.0000
 CSTAR, M/SEC               1338.2   1338.2
 CF                         0.6896   1.4358
 Ivac, M/SEC                1668.4   2133.4
 Isp, M/SEC                  922.8   1921.5

 MASS FRACTIONS

 *CO             0.01106   *CO2            0.24988   *H              0.00001
 HO2             0.00003   *H2             0.00010   H2O             0.08901
 *NO             0.01389   NO2             0.00005   *N2             0.57694
 N2O             0.00001   *O              0.00068   *OH             0.00542
 *O2             0.05292

  * THERMODYNAMIC PROPERTIES FITTED TO 20000.K

 NOTE. WEIGHT FRACTION OF FUEL IN TOTAL FUELS AND OF OXIDANT IN TOTAL OXIDANTS

           THEORETICAL ROCKET PERFORMANCE ASSUMING FROZEN COMPOSITION

 Pin =   661.3 PSIA
 CASE = _______________

             REACTANT                    WT FRACTION      ENERGY      TEMP
                                          (SEE NOTE)     KJ/KG-MOL      K  
 FUEL        paraffin                     1.0000000  -1860600.000    298.150
 OXIDANT     N2O                          1.0000000         0.000      0.000

 O/F=   11.00000  %FUEL=  8.333333  R,EQ.RATIO= 0.830775  PHI,EQ.RATIO= 0.830775

                 CHAMBER   THROAT     EXIT
 Pinf/P            1.0000   1.7946   25.252
 P, BAR            45.596   25.407   1.8056
 T, K             2710.09  2423.93  1434.84
 RHO, KG/CU M    5.9256 0 3.6917 0 4.4322-1
 H, KJ/KG         -154.78  -580.61 -2001.21
 U, KJ/KG         -924.26 -1268.84 -2408.60
 G, KJ/KG        -23819.0 -21746.1 -14530.1
 S, KJ/(KG)(K)     8.7319   8.7319   8.7319

 M, (1/n)          29.283   29.283   29.283
 Cp, KJ/(KG)(K)    1.4960   1.4796   1.3768
 GAMMAs            1.2343   1.2375   1.2598
 SON VEL,M/SEC      974.5    922.9    716.4
 MACH NUMBER        0.000    1.000    2.682

 PERFORMANCE PARAMETERS

 Ae/At                      1.0000   4.0000
 CSTAR, M/SEC               1338.4   1338.4
 CF                         0.6895   1.4358
 Ivac, M/SEC                1668.6   2133.7
 Isp, M/SEC                  922.9   1921.7

 MASS FRACTIONS

 *CO             0.01098   *CO2            0.25000   *H              0.00001
 HO2             0.00003   *H2             0.00010   H2O             0.08903
 *NO             0.01390   NO2             0.00005   *N2             0.57693
 N2O             0.00001   *O              0.00067   *OH             0.00540
 *O2             0.05287

  * THERMODYNAMIC PROPERTIES FITTED TO 20000.K

 NOTE. WEIGHT FRACTION OF FUEL IN TOTAL FUELS AND OF OXIDANT IN TOTAL OXIDANTS

           THEORETICAL ROCKET PERFORMANCE ASSUMING FROZEN COMPOSITION

 Pin =   676.0 PSIA
 CASE = _______________

             REACTANT                    WT FRACTION      ENERGY      TEMP
                                          (SEE NOTE)     KJ/KG-MOL      K  
 FUEL        paraffin                     1.0000000  -1860600.000    298.150
 OXIDANT     N2O                          1.0000000         0.000      0.000

 O/F=   11.00000  %FUEL=  8.333333  R,EQ.RATIO= 0.830775  PHI,EQ.RATIO= 0.830775

                 CHAMBER   THROAT     EXIT
 Pinf/P            1.0000   1.7946   25.250
 P, BAR            46.609   25.972   1.8459
 T, K             2710.83  2424.63  1435.35
 RHO, KG/CU M    6.0560 0 3.7729 0 4.5296-1
 H, KJ/KG         -154.78  -580.69 -2001.63
 U, KJ/KG         -924.42 -1269.08 -2409.14
 G, KJ/KG        -23808.6 -21737.2 -14526.0
 S, KJ/(KG)(K)     8.7257   8.7257   8.7257

 M, (1/n)          29.285   29.285   29.285
 Cp, KJ/(KG)(K)    1.4960   1.4797   1.3769
 GAMMAs            1.2342   1.2374   1.2598
 SON VEL,M/SEC      974.6    922.9    716.5
 MACH NUMBER        0.000    1.000    2.682

 PERFORMANCE PARAMETERS

 Ae/At                      1.0000   4.0000
 CSTAR, M/SEC               1338.5   1338.5
 CF                         0.6895   1.4358
 Ivac, M/SEC                1668.8   2133.9
 Isp, M/SEC                  922.9   1921.9

 MASS FRACTIONS

 *CO             0.01090   *CO2            0.25012   *H              0.00001
 HO2             0.00003   *H2             0.00010   H2O             0.08905
 *NO             0.01391   NO2             0.00005   *N2             0.57693
 N2O             0.00001   *O              0.00066   *OH             0.00538
 *O2             0.05283

  * THERMODYNAMIC PROPERTIES FITTED TO 20000.K

 NOTE. WEIGHT FRACTION OF FUEL IN TOTAL FUELS AND OF OXIDANT IN TOTAL OXIDANTS

           THEORETICAL ROCKET PERFORMANCE ASSUMING FROZEN COMPOSITION

 Pin =   690.7 PSIA
 CASE = _______________

             REACTANT                    WT FRACTION      ENERGY      TEMP
                                          (SEE NOTE)     KJ/KG-MOL      K  
 FUEL        paraffin                     1.0000000  -1860600.000    298.150
 OXIDANT     N2O                          1.0000000         0.000      0.000

 O/F=   11.00000  %FUEL=  8.333333  R,EQ.RATIO= 0.830775  PHI,EQ.RATIO= 0.830775

                 CHAMBER   THROAT     EXIT
 Pinf/P            1.0000   1.7946   25.249
 P, BAR            47.623   26.537   1.8862
 T, K             2711.56  2425.31  1435.86
 RHO, KG/CU M    6.1863 0 3.8541 0 4.6270-1
 H, KJ/KG         -154.78  -580.78 -2002.03
 U, KJ/KG         -924.58 -1269.32 -2409.67
 G, KJ/KG        -23798.4 -21728.4 -14522.1
 S, KJ/(KG)(K)     8.7196   8.7196   8.7196

 M, (1/n)          29.287   29.287   29.287
 Cp, KJ/(KG)(K)    1.4961   1.4797   1.3770
 GAMMAs            1.2342   1.2374   1.2597
 SON VEL,M/SEC      974.7    923.0    716.6
 MACH NUMBER        0.000    1.000    2.682

 PERFORMANCE PARAMETERS

 Ae/At                      1.0000   4.0000
 CSTAR, M/SEC               1338.7   1338.7
 CF                         0.6895   1.4358
 Ivac, M/SEC                1669.0   2134.2
 Isp, M/SEC                  923.0   1922.1

 MASS FRACTIONS

 *CO             0.01083   *CO2            0.25023   *H              0.00001
 HO2             0.00003   *H2             0.00010   H2O             0.08906
 *NO             0.01392   NO2             0.00005   *N2             0.57692
 N2O             0.00001   *O              0.00066   *OH             0.00537
 *O2             0.05279

  * THERMODYNAMIC PROPERTIES FITTED TO 20000.K

 NOTE. WEIGHT FRACTION OF FUEL IN TOTAL FUELS AND OF OXIDANT IN TOTAL OXIDANTS

           THEORETICAL ROCKET PERFORMANCE ASSUMING FROZEN COMPOSITION

 Pin =   705.4 PSIA
 CASE = _______________

             REACTANT                    WT FRACTION      ENERGY      TEMP
                                          (SEE NOTE)     KJ/KG-MOL      K  
 FUEL        paraffin                     1.0000000  -1860600.000    298.150
 OXIDANT     N2O                          1.0000000         0.000      0.000

 O/F=   11.00000  %FUEL=  8.333333  R,EQ.RATIO= 0.830775  PHI,EQ.RATIO= 0.830775

                 CHAMBER   THROAT     EXIT
 Pinf/P            1.0000   1.7946   25.247
 P, BAR            48.636   27.102   1.9264
 T, K             2712.27  2425.97  1436.35
 RHO, KG/CU M    6.3167 0 3.9353 0 4.7245-1
 H, KJ/KG         -154.78  -580.86 -2002.43
 U, KJ/KG         -924.74 -1269.55 -2410.19
 G, KJ/KG        -23788.3 -21719.7 -14518.1
 S, KJ/(KG)(K)     8.7136   8.7136   8.7136

 M, (1/n)          29.289   29.289   29.289
 Cp, KJ/(KG)(K)    1.4961   1.4798   1.3771
 GAMMAs            1.2342   1.2374   1.2597
 SON VEL,M/SEC      974.8    923.1    716.7
 MACH NUMBER        0.000    1.000    2.682

 PERFORMANCE PARAMETERS

 Ae/At                      1.0000   4.0000
 CSTAR, M/SEC               1338.8   1338.8
 CF                         0.6895   1.4358
 Ivac, M/SEC                1669.2   2134.4
 Isp, M/SEC                  923.1   1922.3

 MASS FRACTIONS

 *CO             0.01076   *CO2            0.25034   *H              0.00001
 HO2             0.00003   *H2             0.00010   H2O             0.08908
 *NO             0.01393   NO2             0.00005   *N2             0.57692
 N2O             0.00001   *O              0.00065   *OH             0.00535
 *O2             0.05275

  * THERMODYNAMIC PROPERTIES FITTED TO 20000.K

 NOTE. WEIGHT FRACTION OF FUEL IN TOTAL FUELS AND OF OXIDANT IN TOTAL OXIDANTS