         NASA-GLENN CHEMICAL EQUILIBRIUM PROGRAM CEA2, FEBRUARY 5, 2004
                   BY  BONNIE MCBRIDE AND SANFORD GORDON
      REFS: NASA RP-1311, PART I, 1994 AND NASA RP-1311, PART II, 1996

 *******************************************************************************

  
 ### CEA analysis performed on Tue 12-Oct-2021 14:56:02
  
 # Problem Type: "Rocket" (Infinite Area Combustor)
  
 prob case=_______________1223 ro frozen
  
 # Pressure (24 values):
 p,atm= 49, 50, 51, 52, 53, 54, 55, 56, 57, 58, 59, 60, 61, 62, 63, 64, 65, 66, 6
 7, 68, 69, 70, 71, 72
 # Supersonic Area Ratio (1 value):
 supar= 4
  
 # Oxidizer/Fuel Wt. ratio (31 values):
 o/f= 12.3, 12.5, 12.7, 12.9, 13.1, 13.3, 13.5, 13.7, 13.9, 14.1, 14.3, 14.5, 14.
 7, 14.9, 15.1, 15.3, 15.5, 15.7, 15.9, 16.1, 16.3, 1
  
 # You selected the following fuels and oxidizers:
 reac
 fuel paraffin          wt%=100.0000
 oxid N2O               wt%=100.0000
  
 # You selected these options for output:
 # short version of output
 output short
 # Proportions of any products will be expressed as Mass Fractions.
 output massf
 # Heat will be expressed as siunits
 output siunits
  
 # Input prepared by this script:/var/www/sites/cearun.grc.nasa.gov/cgi-bin/CEARU
 N/prepareInputFile.cgi
  
 ### IMPORTANT:  The following line is the end of your CEA input file!
 end

           THEORETICAL ROCKET PERFORMANCE ASSUMING FROZEN COMPOSITION

 Pin =   720.1 PSIA
 CASE = _______________

             REACTANT                    WT FRACTION      ENERGY      TEMP
                                          (SEE NOTE)     KJ/KG-MOL      K  
 FUEL        paraffin                     1.0000000  -1860600.000    298.150
 OXIDANT     N2O                          1.0000000         0.000      0.000

 O/F=   12.30000  %FUEL=  7.518797  R,EQ.RATIO= 0.742970  PHI,EQ.RATIO= 0.742970

                 CHAMBER   THROAT     EXIT
 Pinf/P            1.0000   1.7973   25.512
 P, BAR            49.649   27.625   1.9461
 T, K             2571.43  2295.57  1344.55
 RHO, KG/CU M    6.8299 0 4.2568 0 5.1200-1
 H, KJ/KG         -139.65  -542.59 -1880.40
 U, KJ/KG         -866.59 -1191.54 -2260.50
 G, KJ/KG        -22187.4 -20225.1 -13408.7
 S, KJ/(KG)(K)     8.5741   8.5741   8.5741

 M, (1/n)          29.411   29.411   29.411
 Cp, KJ/(KG)(K)    1.4689   1.4518   1.3452
 GAMMAs            1.2383   1.2418   1.2661
 SON VEL,M/SEC      948.8    897.7    693.7
 MACH NUMBER        0.000    1.000    2.690

 PERFORMANCE PARAMETERS

 Ae/At                      1.0000   4.0000
 CSTAR, M/SEC               1299.3   1299.3
 CF                         0.6909   1.4361
 Ivac, M/SEC                1620.6   2069.6
 Isp, M/SEC                  897.7   1865.9

 MASS FRACTIONS

 *CO             0.00416   *CO2            0.23459   HO2             0.00003
 *H2             0.00004   H2O             0.08141   *NO             0.01377
 NO2             0.00007   *N2             0.58217   N2O             0.00001
 *O              0.00043   *OH             0.00382   *O2             0.07950

  * THERMODYNAMIC PROPERTIES FITTED TO 20000.K

 NOTE. WEIGHT FRACTION OF FUEL IN TOTAL FUELS AND OF OXIDANT IN TOTAL OXIDANTS

           THEORETICAL ROCKET PERFORMANCE ASSUMING FROZEN COMPOSITION

 Pin =   734.8 PSIA
 CASE = _______________

             REACTANT                    WT FRACTION      ENERGY      TEMP
                                          (SEE NOTE)     KJ/KG-MOL      K  
 FUEL        paraffin                     1.0000000  -1860600.000    298.150
 OXIDANT     N2O                          1.0000000         0.000      0.000

 O/F=   12.30000  %FUEL=  7.518797  R,EQ.RATIO= 0.742970  PHI,EQ.RATIO= 0.742970

                 CHAMBER   THROAT     EXIT
 Pinf/P            1.0000   1.7973   25.511
 P, BAR            50.663   28.188   1.9859
 T, K             2571.81  2295.92  1344.81
 RHO, KG/CU M    6.9685 0 4.3431 0 5.2239-1
 H, KJ/KG         -139.65  -542.63 -1880.61
 U, KJ/KG         -866.67 -1191.67 -2260.78
 G, KJ/KG        -22176.0 -20215.0 -13403.5
 S, KJ/(KG)(K)     8.5684   8.5684   8.5684

 M, (1/n)          29.412   29.412   29.412
 Cp, KJ/(KG)(K)    1.4690   1.4518   1.3453
 GAMMAs            1.2383   1.2418   1.2660
 SON VEL,M/SEC      948.8    897.8    693.8
 MACH NUMBER        0.000    1.000    2.690

 PERFORMANCE PARAMETERS

 Ae/At                      1.0000   4.0000
 CSTAR, M/SEC               1299.3   1299.3
 CF                         0.6909   1.4361
 Ivac, M/SEC                1620.7   2069.7
 Isp, M/SEC                  897.8   1866.0

 MASS FRACTIONS

 *CO             0.00413   *CO2            0.23464   HO2             0.00003
 *H2             0.00004   H2O             0.08142   *NO             0.01378
 NO2             0.00007   *N2             0.58217   N2O             0.00001
 *O              0.00042   *OH             0.00380   *O2             0.07948

  * THERMODYNAMIC PROPERTIES FITTED TO 20000.K

 NOTE. WEIGHT FRACTION OF FUEL IN TOTAL FUELS AND OF OXIDANT IN TOTAL OXIDANTS

           THEORETICAL ROCKET PERFORMANCE ASSUMING FROZEN COMPOSITION

 Pin =   749.5 PSIA
 CASE = _______________

             REACTANT                    WT FRACTION      ENERGY      TEMP
                                          (SEE NOTE)     KJ/KG-MOL      K  
 FUEL        paraffin                     1.0000000  -1860600.000    298.150
 OXIDANT     N2O                          1.0000000         0.000      0.000

 O/F=   12.30000  %FUEL=  7.518797  R,EQ.RATIO= 0.742970  PHI,EQ.RATIO= 0.742970

                 CHAMBER   THROAT     EXIT
 Pinf/P            1.0000   1.7973   25.510
 P, BAR            51.676   28.752   2.0257
 T, K             2572.18  2296.27  1345.06
 RHO, KG/CU M    7.1070 0 4.4295 0 5.3277-1
 H, KJ/KG         -139.65  -542.68 -1880.82
 U, KJ/KG         -866.75 -1191.79 -2261.05
 G, KJ/KG        -22164.7 -20205.2 -13398.3
 S, KJ/(KG)(K)     8.5628   8.5628   8.5628

 M, (1/n)          29.413   29.413   29.413
 Cp, KJ/(KG)(K)    1.4690   1.4518   1.3453
 GAMMAs            1.2383   1.2418   1.2660
 SON VEL,M/SEC      948.9    897.8    693.8
 MACH NUMBER        0.000    1.000    2.690

 PERFORMANCE PARAMETERS

 Ae/At                      1.0000   4.0000
 CSTAR, M/SEC               1299.4   1299.4
 CF                         0.6909   1.4361
 Ivac, M/SEC                1620.8   2069.9
 Isp, M/SEC                  897.8   1866.1

 MASS FRACTIONS

 *CO             0.00410   *CO2            0.23469   HO2             0.00003
 *H2             0.00004   H2O             0.08143   *NO             0.01378
 NO2             0.00007   *N2             0.58216   N2O             0.00001
 *O              0.00042   *OH             0.00379   *O2             0.07947

  * THERMODYNAMIC PROPERTIES FITTED TO 20000.K

 NOTE. WEIGHT FRACTION OF FUEL IN TOTAL FUELS AND OF OXIDANT IN TOTAL OXIDANTS

           THEORETICAL ROCKET PERFORMANCE ASSUMING FROZEN COMPOSITION

 Pin =   764.2 PSIA
 CASE = _______________

             REACTANT                    WT FRACTION      ENERGY      TEMP
                                          (SEE NOTE)     KJ/KG-MOL      K  
 FUEL        paraffin                     1.0000000  -1860600.000    298.150
 OXIDANT     N2O                          1.0000000         0.000      0.000

 O/F=   12.30000  %FUEL=  7.518797  R,EQ.RATIO= 0.742970  PHI,EQ.RATIO= 0.742970

                 CHAMBER   THROAT     EXIT
 Pinf/P            1.0000   1.7973   25.509
 P, BAR            52.689   29.316   2.0655
 T, K             2572.54  2296.60  1345.30
 RHO, KG/CU M    7.2456 0 4.5158 0 5.4315-1
 H, KJ/KG         -139.65  -542.72 -1881.03
 U, KJ/KG         -866.83 -1191.91 -2261.31
 G, KJ/KG        -22153.7 -20195.5 -13393.2
 S, KJ/(KG)(K)     8.5573   8.5573   8.5573

 M, (1/n)          29.414   29.414   29.414
 Cp, KJ/(KG)(K)    1.4690   1.4519   1.3454
 GAMMAs            1.2383   1.2418   1.2660
 SON VEL,M/SEC      948.9    897.9    693.9
 MACH NUMBER        0.000    1.000    2.690

 PERFORMANCE PARAMETERS

 Ae/At                      1.0000   4.0000
 CSTAR, M/SEC               1299.5   1299.5
 CF                         0.6909   1.4361
 Ivac, M/SEC                1620.9   2070.0
 Isp, M/SEC                  897.9   1866.2

 MASS FRACTIONS

 *CO             0.00407   *CO2            0.23474   HO2             0.00003
 *H2             0.00004   H2O             0.08144   *NO             0.01379
 NO2             0.00008   *N2             0.58216   N2O             0.00001
 *O              0.00042   *OH             0.00377   *O2             0.07945

  * THERMODYNAMIC PROPERTIES FITTED TO 20000.K

 NOTE. WEIGHT FRACTION OF FUEL IN TOTAL FUELS AND OF OXIDANT IN TOTAL OXIDANTS

           THEORETICAL ROCKET PERFORMANCE ASSUMING FROZEN COMPOSITION

 Pin =   778.9 PSIA
 CASE = _______________

             REACTANT                    WT FRACTION      ENERGY      TEMP
                                          (SEE NOTE)     KJ/KG-MOL      K  
 FUEL        paraffin                     1.0000000  -1860600.000    298.150
 OXIDANT     N2O                          1.0000000         0.000      0.000

 O/F=   12.30000  %FUEL=  7.518797  R,EQ.RATIO= 0.742970  PHI,EQ.RATIO= 0.742970

                 CHAMBER   THROAT     EXIT
 Pinf/P            1.0000   1.7972   25.508
 P, BAR            53.702   29.880   2.1053
 T, K             2572.89  2296.93  1345.54
 RHO, KG/CU M    7.3841 0 4.6022 0 5.5354-1
 H, KJ/KG         -139.65  -542.76 -1881.23
 U, KJ/KG         -866.91 -1192.02 -2261.56
 G, KJ/KG        -22142.8 -20186.0 -13388.2
 S, KJ/(KG)(K)     8.5519   8.5519   8.5519

 M, (1/n)          29.415   29.415   29.415
 Cp, KJ/(KG)(K)    1.4690   1.4519   1.3454
 GAMMAs            1.2383   1.2418   1.2660
 SON VEL,M/SEC      949.0    897.9    693.9
 MACH NUMBER        0.000    1.000    2.690

 PERFORMANCE PARAMETERS

 Ae/At                      1.0000   4.0000
 CSTAR, M/SEC               1299.6   1299.6
 CF                         0.6909   1.4361
 Ivac, M/SEC                1621.0   2070.1
 Isp, M/SEC                  897.9   1866.3

 MASS FRACTIONS

 *CO             0.00404   *CO2            0.23478   HO2             0.00003
 *H2             0.00004   H2O             0.08145   *NO             0.01380
 NO2             0.00008   *N2             0.58216   N2O             0.00001
 *O              0.00041   *OH             0.00376   *O2             0.07944

  * THERMODYNAMIC PROPERTIES FITTED TO 20000.K

 NOTE. WEIGHT FRACTION OF FUEL IN TOTAL FUELS AND OF OXIDANT IN TOTAL OXIDANTS

           THEORETICAL ROCKET PERFORMANCE ASSUMING FROZEN COMPOSITION

 Pin =   793.6 PSIA
 CASE = _______________

             REACTANT                    WT FRACTION      ENERGY      TEMP
                                          (SEE NOTE)     KJ/KG-MOL      K  
 FUEL        paraffin                     1.0000000  -1860600.000    298.150
 OXIDANT     N2O                          1.0000000         0.000      0.000

 O/F=   12.30000  %FUEL=  7.518797  R,EQ.RATIO= 0.742970  PHI,EQ.RATIO= 0.742970

                 CHAMBER   THROAT     EXIT
 Pinf/P            1.0000   1.7972   25.507
 P, BAR            54.715   30.444   2.1451
 T, K             2573.23  2297.25  1345.77
 RHO, KG/CU M    7.5227 0 4.6885 0 5.6392-1
 H, KJ/KG         -139.65  -542.80 -1881.42
 U, KJ/KG         -866.99 -1192.13 -2261.81
 G, KJ/KG        -22132.2 -20176.6 -13383.3
 S, KJ/(KG)(K)     8.5467   8.5467   8.5467

 M, (1/n)          29.416   29.416   29.416
 Cp, KJ/(KG)(K)    1.4691   1.4519   1.3455
 GAMMAs            1.2382   1.2417   1.2660
 SON VEL,M/SEC      949.0    897.9    693.9
 MACH NUMBER        0.000    1.000    2.690

 PERFORMANCE PARAMETERS

 Ae/At                      1.0000   4.0000
 CSTAR, M/SEC               1299.6   1299.6
 CF                         0.6909   1.4361
 Ivac, M/SEC                1621.1   2070.2
 Isp, M/SEC                  897.9   1866.4

 MASS FRACTIONS

 *CO             0.00401   *CO2            0.23483   HO2             0.00003
 *H2             0.00004   H2O             0.08146   *NO             0.01380
 NO2             0.00008   *N2             0.58215   N2O             0.00001
 *O              0.00041   *OH             0.00374   *O2             0.07942

  * THERMODYNAMIC PROPERTIES FITTED TO 20000.K

 NOTE. WEIGHT FRACTION OF FUEL IN TOTAL FUELS AND OF OXIDANT IN TOTAL OXIDANTS

           THEORETICAL ROCKET PERFORMANCE ASSUMING FROZEN COMPOSITION

 Pin =   808.3 PSIA
 CASE = _______________

             REACTANT                    WT FRACTION      ENERGY      TEMP
                                          (SEE NOTE)     KJ/KG-MOL      K  
 FUEL        paraffin                     1.0000000  -1860600.000    298.150
 OXIDANT     N2O                          1.0000000         0.000      0.000

 O/F=   12.30000  %FUEL=  7.518797  R,EQ.RATIO= 0.742970  PHI,EQ.RATIO= 0.742970

                 CHAMBER   THROAT     EXIT
 Pinf/P            1.0000   1.7972   25.506
 P, BAR            55.729   31.008   2.1849
 T, K             2573.56  2297.56  1346.00
 RHO, KG/CU M    7.6612 0 4.7749 0 5.7430-1
 H, KJ/KG         -139.65  -542.84 -1881.61
 U, KJ/KG         -867.06 -1192.24 -2262.06
 G, KJ/KG        -22121.7 -20167.4 -13378.4
 S, KJ/(KG)(K)     8.5415   8.5415   8.5415

 M, (1/n)          29.416   29.416   29.416
 Cp, KJ/(KG)(K)    1.4691   1.4519   1.3455
 GAMMAs            1.2382   1.2417   1.2659
 SON VEL,M/SEC      949.1    898.0    694.0
 MACH NUMBER        0.000    1.000    2.690

 PERFORMANCE PARAMETERS

 Ae/At                      1.0000   4.0000
 CSTAR, M/SEC               1299.7   1299.7
 CF                         0.6909   1.4361
 Ivac, M/SEC                1621.2   2070.4
 Isp, M/SEC                  898.0   1866.5

 MASS FRACTIONS

 *CO             0.00398   *CO2            0.23488   HO2             0.00003
 *H2             0.00004   H2O             0.08147   *NO             0.01381
 NO2             0.00008   *N2             0.58215   N2O             0.00001
 *O              0.00041   *OH             0.00373   *O2             0.07941

  * THERMODYNAMIC PROPERTIES FITTED TO 20000.K

 NOTE. WEIGHT FRACTION OF FUEL IN TOTAL FUELS AND OF OXIDANT IN TOTAL OXIDANTS

           THEORETICAL ROCKET PERFORMANCE ASSUMING FROZEN COMPOSITION

 Pin =   823.0 PSIA
 CASE = _______________

             REACTANT                    WT FRACTION      ENERGY      TEMP
                                          (SEE NOTE)     KJ/KG-MOL      K  
 FUEL        paraffin                     1.0000000  -1860600.000    298.150
 OXIDANT     N2O                          1.0000000         0.000      0.000

 O/F=   12.30000  %FUEL=  7.518797  R,EQ.RATIO= 0.742970  PHI,EQ.RATIO= 0.742970

                 CHAMBER   THROAT     EXIT
 Pinf/P            1.0000   1.7972   25.506
 P, BAR            56.742   31.572   2.2247
 T, K             2573.89  2297.87  1346.22
 RHO, KG/CU M    7.7997 0 4.8612 0 5.8468-1
 H, KJ/KG         -139.65  -542.88 -1881.80
 U, KJ/KG         -867.14 -1192.35 -2262.30
 G, KJ/KG        -22111.3 -20158.3 -13373.7
 S, KJ/(KG)(K)     8.5364   8.5364   8.5364

 M, (1/n)          29.417   29.417   29.417
 Cp, KJ/(KG)(K)    1.4691   1.4520   1.3455
 GAMMAs            1.2382   1.2417   1.2659
 SON VEL,M/SEC      949.1    898.0    694.0
 MACH NUMBER        0.000    1.000    2.690

 PERFORMANCE PARAMETERS

 Ae/At                      1.0000   4.0000
 CSTAR, M/SEC               1299.8   1299.8
 CF                         0.6909   1.4361
 Ivac, M/SEC                1621.2   2070.5
 Isp, M/SEC                  898.0   1866.6

 MASS FRACTIONS

 *CO             0.00395   *CO2            0.23492   HNO2            0.00001
 HO2             0.00003   *H2             0.00004   H2O             0.08148
 *NO             0.01382   NO2             0.00008   *N2             0.58215
 N2O             0.00001   *O              0.00040   *OH             0.00372
 *O2             0.07940

  * THERMODYNAMIC PROPERTIES FITTED TO 20000.K

 NOTE. WEIGHT FRACTION OF FUEL IN TOTAL FUELS AND OF OXIDANT IN TOTAL OXIDANTS

           THEORETICAL ROCKET PERFORMANCE ASSUMING FROZEN COMPOSITION

 Pin =   837.7 PSIA
 CASE = _______________

             REACTANT                    WT FRACTION      ENERGY      TEMP
                                          (SEE NOTE)     KJ/KG-MOL      K  
 FUEL        paraffin                     1.0000000  -1860600.000    298.150
 OXIDANT     N2O                          1.0000000         0.000      0.000

 O/F=   12.30000  %FUEL=  7.518797  R,EQ.RATIO= 0.742970  PHI,EQ.RATIO= 0.742970

                 CHAMBER   THROAT     EXIT
 Pinf/P            1.0000   1.7972   25.505
 P, BAR            57.755   32.136   2.2645
 T, K             2574.21  2298.16  1346.44
 RHO, KG/CU M    7.9382 0 4.9475 0 5.9505-1
 H, KJ/KG         -139.65  -542.92 -1881.98
 U, KJ/KG         -867.21 -1192.46 -2262.53
 G, KJ/KG        -22101.2 -20149.4 -13369.0
 S, KJ/(KG)(K)     8.5314   8.5314   8.5314

 M, (1/n)          29.418   29.418   29.418
 Cp, KJ/(KG)(K)    1.4691   1.4520   1.3456
 GAMMAs            1.2382   1.2417   1.2659
 SON VEL,M/SEC      949.1    898.1    694.1
 MACH NUMBER        0.000    1.000    2.690

 PERFORMANCE PARAMETERS

 Ae/At                      1.0000   4.0000
 CSTAR, M/SEC               1299.9   1299.9
 CF                         0.6909   1.4361
 Ivac, M/SEC                1621.3   2070.6
 Isp, M/SEC                  898.1   1866.7

 MASS FRACTIONS

 *CO             0.00392   *CO2            0.23496   HNO2            0.00001
 HO2             0.00003   *H2             0.00004   H2O             0.08149
 *NO             0.01382   NO2             0.00008   *N2             0.58214
 N2O             0.00001   *O              0.00040   *OH             0.00370
 *O2             0.07938

  * THERMODYNAMIC PROPERTIES FITTED TO 20000.K

 NOTE. WEIGHT FRACTION OF FUEL IN TOTAL FUELS AND OF OXIDANT IN TOTAL OXIDANTS

           THEORETICAL ROCKET PERFORMANCE ASSUMING FROZEN COMPOSITION

 Pin =   852.4 PSIA
 CASE = _______________

             REACTANT                    WT FRACTION      ENERGY      TEMP
                                          (SEE NOTE)     KJ/KG-MOL      K  
 FUEL        paraffin                     1.0000000  -1860600.000    298.150
 OXIDANT     N2O                          1.0000000         0.000      0.000

 O/F=   12.30000  %FUEL=  7.518797  R,EQ.RATIO= 0.742970  PHI,EQ.RATIO= 0.742970

                 CHAMBER   THROAT     EXIT
 Pinf/P            1.0000   1.7972   25.504
 P, BAR            58.768   32.700   2.3043
 T, K             2574.52  2298.46  1346.65
 RHO, KG/CU M    8.0767 0 5.0338 0 6.0543-1
 H, KJ/KG         -139.65  -542.95 -1882.16
 U, KJ/KG         -867.28 -1192.56 -2262.76
 G, KJ/KG        -22091.2 -20140.6 -13364.3
 S, KJ/(KG)(K)     8.5265   8.5265   8.5265

 M, (1/n)          29.419   29.419   29.419
 Cp, KJ/(KG)(K)    1.4692   1.4520   1.3456
 GAMMAs            1.2382   1.2417   1.2659
 SON VEL,M/SEC      949.2    898.1    694.1
 MACH NUMBER        0.000    1.000    2.690

 PERFORMANCE PARAMETERS

 Ae/At                      1.0000   4.0000
 CSTAR, M/SEC               1299.9   1299.9
 CF                         0.6909   1.4361
 Ivac, M/SEC                1621.4   2070.7
 Isp, M/SEC                  898.1   1866.8

 MASS FRACTIONS

 *CO             0.00390   *CO2            0.23501   HNO2            0.00001
 HO2             0.00003   *H2             0.00004   H2O             0.08150
 *NO             0.01383   NO2             0.00008   *N2             0.58214
 N2O             0.00001   *O              0.00040   *OH             0.00369
 *O2             0.07937

  * THERMODYNAMIC PROPERTIES FITTED TO 20000.K

 NOTE. WEIGHT FRACTION OF FUEL IN TOTAL FUELS AND OF OXIDANT IN TOTAL OXIDANTS

           THEORETICAL ROCKET PERFORMANCE ASSUMING FROZEN COMPOSITION

 Pin =   867.1 PSIA
 CASE = _______________

             REACTANT                    WT FRACTION      ENERGY      TEMP
                                          (SEE NOTE)     KJ/KG-MOL      K  
 FUEL        paraffin                     1.0000000  -1860600.000    298.150
 OXIDANT     N2O                          1.0000000         0.000      0.000

 O/F=   12.30000  %FUEL=  7.518797  R,EQ.RATIO= 0.742970  PHI,EQ.RATIO= 0.742970

                 CHAMBER   THROAT     EXIT
 Pinf/P            1.0000   1.7972   25.503
 P, BAR            59.782   33.264   2.3441
 T, K             2574.83  2298.74  1346.86
 RHO, KG/CU M    8.2152 0 5.1201 0 6.1581-1
 H, KJ/KG         -139.65  -542.99 -1882.33
 U, KJ/KG         -867.35 -1192.66 -2262.98
 G, KJ/KG        -22081.3 -20132.0 -13359.8
 S, KJ/(KG)(K)     8.5216   8.5216   8.5216

 M, (1/n)          29.419   29.419   29.419
 Cp, KJ/(KG)(K)    1.4692   1.4520   1.3457
 GAMMAs            1.2382   1.2417   1.2659
 SON VEL,M/SEC      949.2    898.2    694.2
 MACH NUMBER        0.000    1.000    2.689

 PERFORMANCE PARAMETERS

 Ae/At                      1.0000   4.0000
 CSTAR, M/SEC               1300.0   1300.0
 CF                         0.6909   1.4361
 Ivac, M/SEC                1621.5   2070.8
 Isp, M/SEC                  898.2   1866.9

 MASS FRACTIONS

 *CO             0.00387   *CO2            0.23505   HNO2            0.00001
 HO2             0.00003   *H2             0.00004   H2O             0.08151
 *NO             0.01383   NO2             0.00008   *N2             0.58214
 N2O             0.00001   *O              0.00039   *OH             0.00368
 *O2             0.07936

  * THERMODYNAMIC PROPERTIES FITTED TO 20000.K

 NOTE. WEIGHT FRACTION OF FUEL IN TOTAL FUELS AND OF OXIDANT IN TOTAL OXIDANTS

           THEORETICAL ROCKET PERFORMANCE ASSUMING FROZEN COMPOSITION

 Pin =   881.8 PSIA
 CASE = _______________

             REACTANT                    WT FRACTION      ENERGY      TEMP
                                          (SEE NOTE)     KJ/KG-MOL      K  
 FUEL        paraffin                     1.0000000  -1860600.000    298.150
 OXIDANT     N2O                          1.0000000         0.000      0.000

 O/F=   12.30000  %FUEL=  7.518797  R,EQ.RATIO= 0.742970  PHI,EQ.RATIO= 0.742970

                 CHAMBER   THROAT     EXIT
 Pinf/P            1.0000   1.7972   25.503
 P, BAR            60.795   33.828   2.3839
 T, K             2575.12  2299.02  1347.07
 RHO, KG/CU M    8.3537 0 5.2064 0 6.2618-1
 H, KJ/KG         -139.65  -543.02 -1882.50
 U, KJ/KG         -867.41 -1192.76 -2263.20
 G, KJ/KG        -22071.7 -20123.5 -13355.3
 S, KJ/(KG)(K)     8.5169   8.5169   8.5169

 M, (1/n)          29.420   29.420   29.420
 Cp, KJ/(KG)(K)    1.4692   1.4521   1.3457
 GAMMAs            1.2382   1.2417   1.2658
 SON VEL,M/SEC      949.3    898.2    694.2
 MACH NUMBER        0.000    1.000    2.689

 PERFORMANCE PARAMETERS

 Ae/At                      1.0000   4.0000
 CSTAR, M/SEC               1300.1   1300.1
 CF                         0.6909   1.4361
 Ivac, M/SEC                1621.6   2070.9
 Isp, M/SEC                  898.2   1867.0

 MASS FRACTIONS

 *CO             0.00384   *CO2            0.23509   HNO2            0.00001
 HO2             0.00003   *H2             0.00004   H2O             0.08152
 *NO             0.01384   NO2             0.00008   *N2             0.58213
 N2O             0.00001   *O              0.00039   *OH             0.00367
 *O2             0.07934

  * THERMODYNAMIC PROPERTIES FITTED TO 20000.K

 NOTE. WEIGHT FRACTION OF FUEL IN TOTAL FUELS AND OF OXIDANT IN TOTAL OXIDANTS

           THEORETICAL ROCKET PERFORMANCE ASSUMING FROZEN COMPOSITION

 Pin =   896.5 PSIA
 CASE = _______________

             REACTANT                    WT FRACTION      ENERGY      TEMP
                                          (SEE NOTE)     KJ/KG-MOL      K  
 FUEL        paraffin                     1.0000000  -1860600.000    298.150
 OXIDANT     N2O                          1.0000000         0.000      0.000

 O/F=   12.30000  %FUEL=  7.518797  R,EQ.RATIO= 0.742970  PHI,EQ.RATIO= 0.742970

                 CHAMBER   THROAT     EXIT
 Pinf/P            1.0000   1.7972   25.502
 P, BAR            61.808   34.392   2.4237
 T, K             2575.42  2299.29  1347.27
 RHO, KG/CU M    8.4921 0 5.2927 0 6.3656-1
 H, KJ/KG         -139.65  -543.06 -1882.67
 U, KJ/KG         -867.48 -1192.85 -2263.41
 G, KJ/KG        -22062.1 -20115.1 -13350.9
 S, KJ/(KG)(K)     8.5122   8.5122   8.5122

 M, (1/n)          29.421   29.421   29.421
 Cp, KJ/(KG)(K)    1.4692   1.4521   1.3457
 GAMMAs            1.2382   1.2417   1.2658
 SON VEL,M/SEC      949.3    898.2    694.2
 MACH NUMBER        0.000    1.000    2.689

 PERFORMANCE PARAMETERS

 Ae/At                      1.0000   4.0000
 CSTAR, M/SEC               1300.1   1300.1
 CF                         0.6909   1.4361
 Ivac, M/SEC                1621.6   2071.0
 Isp, M/SEC                  898.2   1867.1

 MASS FRACTIONS

 *CO             0.00382   *CO2            0.23513   HNO2            0.00001
 HO2             0.00003   *H2             0.00004   H2O             0.08153
 *NO             0.01385   NO2             0.00008   *N2             0.58213
 N2O             0.00001   *O              0.00039   *OH             0.00365
 *O2             0.07933

  * THERMODYNAMIC PROPERTIES FITTED TO 20000.K

 NOTE. WEIGHT FRACTION OF FUEL IN TOTAL FUELS AND OF OXIDANT IN TOTAL OXIDANTS

           THEORETICAL ROCKET PERFORMANCE ASSUMING FROZEN COMPOSITION

 Pin =   911.2 PSIA
 CASE = _______________

             REACTANT                    WT FRACTION      ENERGY      TEMP
                                          (SEE NOTE)     KJ/KG-MOL      K  
 FUEL        paraffin                     1.0000000  -1860600.000    298.150
 OXIDANT     N2O                          1.0000000         0.000      0.000

 O/F=   12.30000  %FUEL=  7.518797  R,EQ.RATIO= 0.742970  PHI,EQ.RATIO= 0.742970

                 CHAMBER   THROAT     EXIT
 Pinf/P            1.0000   1.7972   25.501
 P, BAR            62.822   34.956   2.4635
 T, K             2575.70  2299.56  1347.46
 RHO, KG/CU M    8.6306 0 5.3790 0 6.4693-1
 H, KJ/KG         -139.65  -543.09 -1882.83
 U, KJ/KG         -867.54 -1192.95 -2263.62
 G, KJ/KG        -22052.7 -20106.8 -13346.5
 S, KJ/(KG)(K)     8.5076   8.5076   8.5076

 M, (1/n)          29.421   29.421   29.421
 Cp, KJ/(KG)(K)    1.4692   1.4521   1.3458
 GAMMAs            1.2381   1.2416   1.2658
 SON VEL,M/SEC      949.3    898.3    694.3
 MACH NUMBER        0.000    1.000    2.689

 PERFORMANCE PARAMETERS

 Ae/At                      1.0000   4.0000
 CSTAR, M/SEC               1300.2   1300.2
 CF                         0.6909   1.4361
 Ivac, M/SEC                1621.7   2071.1
 Isp, M/SEC                  898.3   1867.2

 MASS FRACTIONS

 *CO             0.00380   *CO2            0.23517   HNO2            0.00001
 HO2             0.00003   *H2             0.00004   H2O             0.08154
 *NO             0.01385   NO2             0.00008   *N2             0.58213
 N2O             0.00001   *O              0.00039   *OH             0.00364
 *O2             0.07932

  * THERMODYNAMIC PROPERTIES FITTED TO 20000.K

 NOTE. WEIGHT FRACTION OF FUEL IN TOTAL FUELS AND OF OXIDANT IN TOTAL OXIDANTS

           THEORETICAL ROCKET PERFORMANCE ASSUMING FROZEN COMPOSITION

 Pin =   925.8 PSIA
 CASE = _______________

             REACTANT                    WT FRACTION      ENERGY      TEMP
                                          (SEE NOTE)     KJ/KG-MOL      K  
 FUEL        paraffin                     1.0000000  -1860600.000    298.150
 OXIDANT     N2O                          1.0000000         0.000      0.000

 O/F=   12.30000  %FUEL=  7.518797  R,EQ.RATIO= 0.742970  PHI,EQ.RATIO= 0.742970

                 CHAMBER   THROAT     EXIT
 Pinf/P            1.0000   1.7972   25.500
 P, BAR            63.835   35.520   2.5033
 T, K             2575.98  2299.82  1347.65
 RHO, KG/CU M    8.7690 0 5.4653 0 6.5731-1
 H, KJ/KG         -139.65  -543.12 -1882.99
 U, KJ/KG         -867.60 -1193.04 -2263.82
 G, KJ/KG        -22043.4 -20098.7 -13342.2
 S, KJ/(KG)(K)     8.5031   8.5031   8.5031

 M, (1/n)          29.422   29.422   29.422
 Cp, KJ/(KG)(K)    1.4693   1.4521   1.3458
 GAMMAs            1.2381   1.2416   1.2658
 SON VEL,M/SEC      949.4    898.3    694.3
 MACH NUMBER        0.000    1.000    2.689

 PERFORMANCE PARAMETERS

 Ae/At                      1.0000   4.0000
 CSTAR, M/SEC               1300.2   1300.2
 CF                         0.6909   1.4361
 Ivac, M/SEC                1621.8   2071.2
 Isp, M/SEC                  898.3   1867.3

 MASS FRACTIONS

 *CO             0.00377   *CO2            0.23521   HNO2            0.00001
 HO2             0.00003   *H2             0.00004   H2O             0.08155
 *NO             0.01386   NO2             0.00008   *N2             0.58213
 N2O             0.00001   *O              0.00038   *OH             0.00363
 *O2             0.07931

  * THERMODYNAMIC PROPERTIES FITTED TO 20000.K

 NOTE. WEIGHT FRACTION OF FUEL IN TOTAL FUELS AND OF OXIDANT IN TOTAL OXIDANTS

           THEORETICAL ROCKET PERFORMANCE ASSUMING FROZEN COMPOSITION

 Pin =   940.5 PSIA
 CASE = _______________

             REACTANT                    WT FRACTION      ENERGY      TEMP
                                          (SEE NOTE)     KJ/KG-MOL      K  
 FUEL        paraffin                     1.0000000  -1860600.000    298.150
 OXIDANT     N2O                          1.0000000         0.000      0.000

 O/F=   12.30000  %FUEL=  7.518797  R,EQ.RATIO= 0.742970  PHI,EQ.RATIO= 0.742970

                 CHAMBER   THROAT     EXIT
 Pinf/P            1.0000   1.7972   25.500
 P, BAR            64.848   36.084   2.5431
 T, K             2576.26  2300.08  1347.84
 RHO, KG/CU M    8.9075 0 5.5515 0 6.6768-1
 H, KJ/KG         -139.65  -543.16 -1883.14
 U, KJ/KG         -867.66 -1193.13 -2264.03
 G, KJ/KG        -22034.3 -20090.7 -13337.9
 S, KJ/(KG)(K)     8.4986   8.4986   8.4986

 M, (1/n)          29.423   29.423   29.423
 Cp, KJ/(KG)(K)    1.4693   1.4522   1.3458
 GAMMAs            1.2381   1.2416   1.2658
 SON VEL,M/SEC      949.4    898.3    694.3
 MACH NUMBER        0.000    1.000    2.689

 PERFORMANCE PARAMETERS

 Ae/At                      1.0000   4.0000
 CSTAR, M/SEC               1300.3   1300.3
 CF                         0.6909   1.4361
 Ivac, M/SEC                1621.9   2071.3
 Isp, M/SEC                  898.3   1867.3

 MASS FRACTIONS

 *CO             0.00375   *CO2            0.23524   HNO2            0.00001
 HO2             0.00003   *H2             0.00004   H2O             0.08156
 *NO             0.01386   NO2             0.00008   *N2             0.58212
 N2O             0.00001   *O              0.00038   *OH             0.00362
 *O2             0.07930

  * THERMODYNAMIC PROPERTIES FITTED TO 20000.K

 NOTE. WEIGHT FRACTION OF FUEL IN TOTAL FUELS AND OF OXIDANT IN TOTAL OXIDANTS

           THEORETICAL ROCKET PERFORMANCE ASSUMING FROZEN COMPOSITION

 Pin =   955.2 PSIA
 CASE = _______________

             REACTANT                    WT FRACTION      ENERGY      TEMP
                                          (SEE NOTE)     KJ/KG-MOL      K  
 FUEL        paraffin                     1.0000000  -1860600.000    298.150
 OXIDANT     N2O                          1.0000000         0.000      0.000

 O/F=   12.30000  %FUEL=  7.518797  R,EQ.RATIO= 0.742970  PHI,EQ.RATIO= 0.742970

                 CHAMBER   THROAT     EXIT
 Pinf/P            1.0000   1.7972   25.499
 P, BAR            65.861   36.647   2.5829
 T, K             2576.52  2300.33  1348.02
 RHO, KG/CU M    9.0459 0 5.6378 0 6.7806-1
 H, KJ/KG         -139.65  -543.19 -1883.30
 U, KJ/KG         -867.72 -1193.22 -2264.22
 G, KJ/KG        -22025.3 -20082.8 -13333.7
 S, KJ/(KG)(K)     8.4943   8.4943   8.4943

 M, (1/n)          29.423   29.423   29.423
 Cp, KJ/(KG)(K)    1.4693   1.4522   1.3459
 GAMMAs            1.2381   1.2416   1.2658
 SON VEL,M/SEC      949.4    898.4    694.4
 MACH NUMBER        0.000    1.000    2.689

 PERFORMANCE PARAMETERS

 Ae/At                      1.0000   4.0000
 CSTAR, M/SEC               1300.4   1300.4
 CF                         0.6909   1.4361
 Ivac, M/SEC                1621.9   2071.4
 Isp, M/SEC                  898.4   1867.4

 MASS FRACTIONS

 *CO             0.00372   *CO2            0.23528   HNO2            0.00001
 HO2             0.00003   *H2             0.00004   H2O             0.08156
 *NO             0.01387   NO2             0.00008   *N2             0.58212
 N2O             0.00001   *O              0.00038   *OH             0.00361
 *O2             0.07929

  * THERMODYNAMIC PROPERTIES FITTED TO 20000.K

 NOTE. WEIGHT FRACTION OF FUEL IN TOTAL FUELS AND OF OXIDANT IN TOTAL OXIDANTS

           THEORETICAL ROCKET PERFORMANCE ASSUMING FROZEN COMPOSITION

 Pin =   969.9 PSIA
 CASE = _______________

             REACTANT                    WT FRACTION      ENERGY      TEMP
                                          (SEE NOTE)     KJ/KG-MOL      K  
 FUEL        paraffin                     1.0000000  -1860600.000    298.150
 OXIDANT     N2O                          1.0000000         0.000      0.000

 O/F=   12.30000  %FUEL=  7.518797  R,EQ.RATIO= 0.742970  PHI,EQ.RATIO= 0.742970

                 CHAMBER   THROAT     EXIT
 Pinf/P            1.0000   1.7972   25.498
 P, BAR            66.874   37.211   2.6227
 T, K             2576.79  2300.57  1348.20
 RHO, KG/CU M    9.1844 0 5.7241 0 6.8843-1
 H, KJ/KG         -139.65  -543.22 -1883.45
 U, KJ/KG         -867.78 -1193.30 -2264.41
 G, KJ/KG        -22016.4 -20075.0 -13329.6
 S, KJ/(KG)(K)     8.4899   8.4899   8.4899

 M, (1/n)          29.424   29.424   29.424
 Cp, KJ/(KG)(K)    1.4693   1.4522   1.3459
 GAMMAs            1.2381   1.2416   1.2657
 SON VEL,M/SEC      949.5    898.4    694.4
 MACH NUMBER        0.000    1.000    2.689

 PERFORMANCE PARAMETERS

 Ae/At                      1.0000   4.0000
 CSTAR, M/SEC               1300.4   1300.4
 CF                         0.6909   1.4361
 Ivac, M/SEC                1622.0   2071.5
 Isp, M/SEC                  898.4   1867.5

 MASS FRACTIONS

 *CO             0.00370   *CO2            0.23531   HNO2            0.00001
 HO2             0.00003   *H2             0.00004   H2O             0.08157
 *NO             0.01387   NO2             0.00009   *N2             0.58212
 N2O             0.00001   *O              0.00038   *OH             0.00360
 *O2             0.07928

  * THERMODYNAMIC PROPERTIES FITTED TO 20000.K

 NOTE. WEIGHT FRACTION OF FUEL IN TOTAL FUELS AND OF OXIDANT IN TOTAL OXIDANTS

           THEORETICAL ROCKET PERFORMANCE ASSUMING FROZEN COMPOSITION

 Pin =   984.6 PSIA
 CASE = _______________

             REACTANT                    WT FRACTION      ENERGY      TEMP
                                          (SEE NOTE)     KJ/KG-MOL      K  
 FUEL        paraffin                     1.0000000  -1860600.000    298.150
 OXIDANT     N2O                          1.0000000         0.000      0.000

 O/F=   12.30000  %FUEL=  7.518797  R,EQ.RATIO= 0.742970  PHI,EQ.RATIO= 0.742970

                 CHAMBER   THROAT     EXIT
 Pinf/P            1.0000   1.7971   25.498
 P, BAR            67.888   37.775   2.6625
 T, K             2577.05  2300.82  1348.38
 RHO, KG/CU M    9.3228 0 5.8104 0 6.9880-1
 H, KJ/KG         -139.65  -543.25 -1883.59
 U, KJ/KG         -867.84 -1193.39 -2264.60
 G, KJ/KG        -22007.7 -20067.3 -13325.5
 S, KJ/(KG)(K)     8.4857   8.4857   8.4857

 M, (1/n)          29.425   29.425   29.425
 Cp, KJ/(KG)(K)    1.4693   1.4522   1.3460
 GAMMAs            1.2381   1.2416   1.2657
 SON VEL,M/SEC      949.5    898.4    694.4
 MACH NUMBER        0.000    1.000    2.689

 PERFORMANCE PARAMETERS

 Ae/At                      1.0000   4.0000
 CSTAR, M/SEC               1300.5   1300.5
 CF                         0.6909   1.4361
 Ivac, M/SEC                1622.1   2071.6
 Isp, M/SEC                  898.4   1867.6

 MASS FRACTIONS

 *CO             0.00368   *CO2            0.23535   HNO2            0.00001
 HO2             0.00003   *H2             0.00004   H2O             0.08158
 *NO             0.01388   NO2             0.00009   *N2             0.58212
 N2O             0.00001   *O              0.00037   *OH             0.00359
 *O2             0.07927

  * THERMODYNAMIC PROPERTIES FITTED TO 20000.K

 NOTE. WEIGHT FRACTION OF FUEL IN TOTAL FUELS AND OF OXIDANT IN TOTAL OXIDANTS

           THEORETICAL ROCKET PERFORMANCE ASSUMING FROZEN COMPOSITION

 Pin =   999.3 PSIA
 CASE = _______________

             REACTANT                    WT FRACTION      ENERGY      TEMP
                                          (SEE NOTE)     KJ/KG-MOL      K  
 FUEL        paraffin                     1.0000000  -1860600.000    298.150
 OXIDANT     N2O                          1.0000000         0.000      0.000

 O/F=   12.30000  %FUEL=  7.518797  R,EQ.RATIO= 0.742970  PHI,EQ.RATIO= 0.742970

                 CHAMBER   THROAT     EXIT
 Pinf/P            1.0000   1.7971   25.497
 P, BAR            68.901   38.339   2.7023
 T, K             2577.30  2301.05  1348.55
 RHO, KG/CU M    9.4612 0 5.8966 0 7.0917-1
 H, KJ/KG         -139.65  -543.28 -1883.74
 U, KJ/KG         -867.90 -1193.47 -2264.79
 G, KJ/KG        -21999.0 -20059.7 -13321.5
 S, KJ/(KG)(K)     8.4815   8.4815   8.4815

 M, (1/n)          29.425   29.425   29.425
 Cp, KJ/(KG)(K)    1.4694   1.4522   1.3460
 GAMMAs            1.2381   1.2416   1.2657
 SON VEL,M/SEC      949.5    898.5    694.5
 MACH NUMBER        0.000    1.000    2.689

 PERFORMANCE PARAMETERS

 Ae/At                      1.0000   4.0000
 CSTAR, M/SEC               1300.5   1300.5
 CF                         0.6909   1.4361
 Ivac, M/SEC                1622.1   2071.7
 Isp, M/SEC                  898.5   1867.7

 MASS FRACTIONS

 *CO             0.00366   *CO2            0.23538   HNO2            0.00001
 HO2             0.00003   *H2             0.00003   H2O             0.08159
 *NO             0.01388   NO2             0.00009   *N2             0.58211
 N2O             0.00001   *O              0.00037   *OH             0.00358
 *O2             0.07926

  * THERMODYNAMIC PROPERTIES FITTED TO 20000.K

 NOTE. WEIGHT FRACTION OF FUEL IN TOTAL FUELS AND OF OXIDANT IN TOTAL OXIDANTS

           THEORETICAL ROCKET PERFORMANCE ASSUMING FROZEN COMPOSITION

 Pin =  1014.0 PSIA
 CASE = _______________

             REACTANT                    WT FRACTION      ENERGY      TEMP
                                          (SEE NOTE)     KJ/KG-MOL      K  
 FUEL        paraffin                     1.0000000  -1860600.000    298.150
 OXIDANT     N2O                          1.0000000         0.000      0.000

 O/F=   12.30000  %FUEL=  7.518797  R,EQ.RATIO= 0.742970  PHI,EQ.RATIO= 0.742970

                 CHAMBER   THROAT     EXIT
 Pinf/P            1.0000   1.7971   25.497
 P, BAR            69.914   38.903   2.7421
 T, K             2577.55  2301.28  1348.72
 RHO, KG/CU M    9.5996 0 5.9829 0 7.1954-1
 H, KJ/KG         -139.65  -543.31 -1883.88
 U, KJ/KG         -867.95 -1193.55 -2264.97
 G, KJ/KG        -21990.5 -20052.2 -13317.5
 S, KJ/(KG)(K)     8.4774   8.4774   8.4774

 M, (1/n)          29.426   29.426   29.426
 Cp, KJ/(KG)(K)    1.4694   1.4523   1.3460
 GAMMAs            1.2381   1.2416   1.2657
 SON VEL,M/SEC      949.6    898.5    694.5
 MACH NUMBER        0.000    1.000    2.689

 PERFORMANCE PARAMETERS

 Ae/At                      1.0000   4.0000
 CSTAR, M/SEC               1300.6   1300.6
 CF                         0.6909   1.4361
 Ivac, M/SEC                1622.2   2071.8
 Isp, M/SEC                  898.5   1867.7

 MASS FRACTIONS

 *CO             0.00364   *CO2            0.23542   HNO2            0.00001
 HO2             0.00003   *H2             0.00003   H2O             0.08160
 *NO             0.01389   NO2             0.00009   *N2             0.58211
 N2O             0.00001   *O              0.00037   *OH             0.00357
 *O2             0.07925

  * THERMODYNAMIC PROPERTIES FITTED TO 20000.K

 NOTE. WEIGHT FRACTION OF FUEL IN TOTAL FUELS AND OF OXIDANT IN TOTAL OXIDANTS

           THEORETICAL ROCKET PERFORMANCE ASSUMING FROZEN COMPOSITION

 Pin =  1028.7 PSIA
 CASE = _______________

             REACTANT                    WT FRACTION      ENERGY      TEMP
                                          (SEE NOTE)     KJ/KG-MOL      K  
 FUEL        paraffin                     1.0000000  -1860600.000    298.150
 OXIDANT     N2O                          1.0000000         0.000      0.000

 O/F=   12.30000  %FUEL=  7.518797  R,EQ.RATIO= 0.742970  PHI,EQ.RATIO= 0.742970

                 CHAMBER   THROAT     EXIT
 Pinf/P            1.0000   1.7971   25.496
 P, BAR            70.927   39.467   2.7819
 T, K             2577.79  2301.51  1348.89
 RHO, KG/CU M    9.7380 0 6.0691 0 7.2991-1
 H, KJ/KG         -139.65  -543.34 -1884.02
 U, KJ/KG         -868.01 -1193.63 -2265.15
 G, KJ/KG        -21982.1 -20044.8 -13313.6
 S, KJ/(KG)(K)     8.4733   8.4733   8.4733

 M, (1/n)          29.427   29.427   29.427
 Cp, KJ/(KG)(K)    1.4694   1.4523   1.3460
 GAMMAs            1.2381   1.2416   1.2657
 SON VEL,M/SEC      949.6    898.5    694.5
 MACH NUMBER        0.000    1.000    2.689

 PERFORMANCE PARAMETERS

 Ae/At                      1.0000   4.0000
 CSTAR, M/SEC               1300.6   1300.6
 CF                         0.6909   1.4361
 Ivac, M/SEC                1622.3   2071.9
 Isp, M/SEC                  898.5   1867.8

 MASS FRACTIONS

 *CO             0.00361   *CO2            0.23545   HNO2            0.00001
 HO2             0.00003   *H2             0.00003   H2O             0.08160
 *NO             0.01389   NO2             0.00009   *N2             0.58211
 N2O             0.00001   *O              0.00037   *OH             0.00356
 *O2             0.07924

  * THERMODYNAMIC PROPERTIES FITTED TO 20000.K

 NOTE. WEIGHT FRACTION OF FUEL IN TOTAL FUELS AND OF OXIDANT IN TOTAL OXIDANTS

           THEORETICAL ROCKET PERFORMANCE ASSUMING FROZEN COMPOSITION

 Pin =  1043.4 PSIA
 CASE = _______________

             REACTANT                    WT FRACTION      ENERGY      TEMP
                                          (SEE NOTE)     KJ/KG-MOL      K  
 FUEL        paraffin                     1.0000000  -1860600.000    298.150
 OXIDANT     N2O                          1.0000000         0.000      0.000

 O/F=   12.30000  %FUEL=  7.518797  R,EQ.RATIO= 0.742970  PHI,EQ.RATIO= 0.742970

                 CHAMBER   THROAT     EXIT
 Pinf/P            1.0000   1.7971   25.495
 P, BAR            71.941   40.031   2.8217
 T, K             2578.03  2301.74  1349.05
 RHO, KG/CU M    9.8764 0 6.1554 0 7.4028-1
 H, KJ/KG         -139.65  -543.36 -1884.15
 U, KJ/KG         -868.06 -1193.71 -2265.32
 G, KJ/KG        -21973.8 -20037.5 -13309.7
 S, KJ/(KG)(K)     8.4693   8.4693   8.4693

 M, (1/n)          29.427   29.427   29.427
 Cp, KJ/(KG)(K)    1.4694   1.4523   1.3461
 GAMMAs            1.2381   1.2415   1.2657
 SON VEL,M/SEC      949.6    898.6    694.6
 MACH NUMBER        0.000    1.000    2.689

 PERFORMANCE PARAMETERS

 Ae/At                      1.0000   4.0000
 CSTAR, M/SEC               1300.7   1300.7
 CF                         0.6909   1.4361
 Ivac, M/SEC                1622.3   2072.0
 Isp, M/SEC                  898.6   1867.9

 MASS FRACTIONS

 *CO             0.00359   *CO2            0.23548   HNO2            0.00001
 HO2             0.00003   *H2             0.00003   H2O             0.08161
 *NO             0.01390   NO2             0.00009   *N2             0.58211
 N2O             0.00001   *O              0.00036   *OH             0.00355
 *O2             0.07923

  * THERMODYNAMIC PROPERTIES FITTED TO 20000.K

 NOTE. WEIGHT FRACTION OF FUEL IN TOTAL FUELS AND OF OXIDANT IN TOTAL OXIDANTS

           THEORETICAL ROCKET PERFORMANCE ASSUMING FROZEN COMPOSITION

 Pin =  1058.1 PSIA
 CASE = _______________

             REACTANT                    WT FRACTION      ENERGY      TEMP
                                          (SEE NOTE)     KJ/KG-MOL      K  
 FUEL        paraffin                     1.0000000  -1860600.000    298.150
 OXIDANT     N2O                          1.0000000         0.000      0.000

 O/F=   12.30000  %FUEL=  7.518797  R,EQ.RATIO= 0.742970  PHI,EQ.RATIO= 0.742970

                 CHAMBER   THROAT     EXIT
 Pinf/P            1.0000   1.7971   25.495
 P, BAR            72.954   40.595   2.8615
 T, K             2578.27  2301.96  1349.21
 RHO, KG/CU M    1.0015 1 6.2416 0 7.5065-1
 H, KJ/KG         -139.65  -543.39 -1884.29
 U, KJ/KG         -868.11 -1193.79 -2265.49
 G, KJ/KG        -21965.6 -20030.3 -13305.9
 S, KJ/(KG)(K)     8.4654   8.4654   8.4654

 M, (1/n)          29.428   29.428   29.428
 Cp, KJ/(KG)(K)    1.4694   1.4523   1.3461
 GAMMAs            1.2381   1.2415   1.2657
 SON VEL,M/SEC      949.7    898.6    694.6
 MACH NUMBER        0.000    1.000    2.689

 PERFORMANCE PARAMETERS

 Ae/At                      1.0000   4.0000
 CSTAR, M/SEC               1300.7   1300.7
 CF                         0.6908   1.4361
 Ivac, M/SEC                1622.4   2072.0
 Isp, M/SEC                  898.6   1868.0

 MASS FRACTIONS

 *CO             0.00357   *CO2            0.23551   HNO2            0.00001
 HO2             0.00003   *H2             0.00003   H2O             0.08162
 *NO             0.01390   NO2             0.00009   *N2             0.58210
 N2O             0.00001   *O              0.00036   *OH             0.00354
 *O2             0.07922

  * THERMODYNAMIC PROPERTIES FITTED TO 20000.K

 NOTE. WEIGHT FRACTION OF FUEL IN TOTAL FUELS AND OF OXIDANT IN TOTAL OXIDANTS

           THEORETICAL ROCKET PERFORMANCE ASSUMING FROZEN COMPOSITION

 Pin =   720.1 PSIA
 CASE = _______________

             REACTANT                    WT FRACTION      ENERGY      TEMP
                                          (SEE NOTE)     KJ/KG-MOL      K  
 FUEL        paraffin                     1.0000000  -1860600.000    298.150
 OXIDANT     N2O                          1.0000000         0.000      0.000

 O/F=   12.50000  %FUEL=  7.407407  R,EQ.RATIO= 0.731082  PHI,EQ.RATIO= 0.731082

                 CHAMBER   THROAT     EXIT
 Pinf/P            1.0000   1.7977   25.556
 P, BAR            49.649   27.618   1.9427
 T, K             2549.57  2275.33  1330.29
 RHO, KG/CU M    6.8910 0 4.2952 0 5.1678-1
 H, KJ/KG         -137.58  -537.06 -1862.29
 U, KJ/KG         -858.07 -1180.05 -2238.22
 G, KJ/KG        -21949.3 -20002.6 -13243.0
 S, KJ/(KG)(K)     8.5550   8.5550   8.5550

 M, (1/n)          29.422   29.422   29.422
 Cp, KJ/(KG)(K)    1.4650   1.4477   1.3405
 GAMMAs            1.2390   1.2426   1.2671
 SON VEL,M/SEC      944.8    893.8    690.2
 MACH NUMBER        0.000    1.000    2.691

 PERFORMANCE PARAMETERS

 Ae/At                      1.0000   4.0000
 CSTAR, M/SEC               1293.2   1293.2
 CF                         0.6912   1.4362
 Ivac, M/SEC                1613.2   2059.7
 Isp, M/SEC                  893.8   1857.3

 MASS FRACTIONS

 *CO             0.00360   *CO2            0.23190   HO2             0.00003
 *H2             0.00003   H2O             0.08034   *NO             0.01361
 NO2             0.00008   *N2             0.58295   N2O             0.00001
 *O              0.00039   *OH             0.00360   *O2             0.08345

  * THERMODYNAMIC PROPERTIES FITTED TO 20000.K

 NOTE. WEIGHT FRACTION OF FUEL IN TOTAL FUELS AND OF OXIDANT IN TOTAL OXIDANTS

           THEORETICAL ROCKET PERFORMANCE ASSUMING FROZEN COMPOSITION

 Pin =   734.8 PSIA
 CASE = _______________

             REACTANT                    WT FRACTION      ENERGY      TEMP
                                          (SEE NOTE)     KJ/KG-MOL      K  
 FUEL        paraffin                     1.0000000  -1860600.000    298.150
 OXIDANT     N2O                          1.0000000         0.000      0.000

 O/F=   12.50000  %FUEL=  7.407407  R,EQ.RATIO= 0.731082  PHI,EQ.RATIO= 0.731082

                 CHAMBER   THROAT     EXIT
 Pinf/P            1.0000   1.7977   25.555
 P, BAR            50.663   28.181   1.9825
 T, K             2549.92  2275.65  1330.52
 RHO, KG/CU M    7.0309 0 4.3823 0 5.2727-1
 H, KJ/KG         -137.58  -537.10 -1862.49
 U, KJ/KG         -858.15 -1180.16 -2238.47
 G, KJ/KG        -21937.7 -19992.4 -13237.6
 S, KJ/(KG)(K)     8.5493   8.5493   8.5493

 M, (1/n)          29.423   29.423   29.423
 Cp, KJ/(KG)(K)    1.4650   1.4477   1.3405
 GAMMAs            1.2390   1.2425   1.2671
 SON VEL,M/SEC      944.9    893.9    690.2
 MACH NUMBER        0.000    1.000    2.691

 PERFORMANCE PARAMETERS

 Ae/At                      1.0000   4.0000
 CSTAR, M/SEC               1293.3   1293.3
 CF                         0.6912   1.4362
 Ivac, M/SEC                1613.3   2059.8
 Isp, M/SEC                  893.9   1857.4

 MASS FRACTIONS

 *CO             0.00357   *CO2            0.23195   HO2             0.00003
 *H2             0.00003   H2O             0.08035   *NO             0.01362
 NO2             0.00008   *N2             0.58295   N2O             0.00001
 *O              0.00039   *OH             0.00358   *O2             0.08344

  * THERMODYNAMIC PROPERTIES FITTED TO 20000.K

 NOTE. WEIGHT FRACTION OF FUEL IN TOTAL FUELS AND OF OXIDANT IN TOTAL OXIDANTS

           THEORETICAL ROCKET PERFORMANCE ASSUMING FROZEN COMPOSITION

 Pin =   749.5 PSIA
 CASE = _______________

             REACTANT                    WT FRACTION      ENERGY      TEMP
                                          (SEE NOTE)     KJ/KG-MOL      K  
 FUEL        paraffin                     1.0000000  -1860600.000    298.150
 OXIDANT     N2O                          1.0000000         0.000      0.000

 O/F=   12.50000  %FUEL=  7.407407  R,EQ.RATIO= 0.731082  PHI,EQ.RATIO= 0.731082

                 CHAMBER   THROAT     EXIT
 Pinf/P            1.0000   1.7977   25.555
 P, BAR            51.676   28.745   2.0222
 T, K             2550.25  2275.96  1330.75
 RHO, KG/CU M    7.1708 0 4.4695 0 5.3775-1
 H, KJ/KG         -137.58  -537.14 -1862.68
 U, KJ/KG         -858.22 -1180.27 -2238.72
 G, KJ/KG        -21926.2 -19982.3 -13232.3
 S, KJ/(KG)(K)     8.5437   8.5437   8.5437

 M, (1/n)          29.424   29.424   29.424
 Cp, KJ/(KG)(K)    1.4650   1.4477   1.3406
 GAMMAs            1.2390   1.2425   1.2671
 SON VEL,M/SEC      944.9    893.9    690.3
 MACH NUMBER        0.000    1.000    2.691

 PERFORMANCE PARAMETERS

 Ae/At                      1.0000   4.0000
 CSTAR, M/SEC               1293.4   1293.4
 CF                         0.6912   1.4362
 Ivac, M/SEC                1613.4   2059.9
 Isp, M/SEC                  893.9   1857.5

 MASS FRACTIONS

 *CO             0.00354   *CO2            0.23199   HO2             0.00003
 *H2             0.00003   H2O             0.08036   *NO             0.01362
 NO2             0.00008   *N2             0.58295   N2O             0.00001
 *O              0.00039   *OH             0.00357   *O2             0.08342

  * THERMODYNAMIC PROPERTIES FITTED TO 20000.K

 NOTE. WEIGHT FRACTION OF FUEL IN TOTAL FUELS AND OF OXIDANT IN TOTAL OXIDANTS

           THEORETICAL ROCKET PERFORMANCE ASSUMING FROZEN COMPOSITION

 Pin =   764.2 PSIA
 CASE = _______________

             REACTANT                    WT FRACTION      ENERGY      TEMP
                                          (SEE NOTE)     KJ/KG-MOL      K  
 FUEL        paraffin                     1.0000000  -1860600.000    298.150
 OXIDANT     N2O                          1.0000000         0.000      0.000

 O/F=   12.50000  %FUEL=  7.407407  R,EQ.RATIO= 0.731082  PHI,EQ.RATIO= 0.731082

                 CHAMBER   THROAT     EXIT
 Pinf/P            1.0000   1.7977   25.554
 P, BAR            52.689   29.309   2.0619
 T, K             2550.58  2276.26  1330.97
 RHO, KG/CU M    7.3106 0 4.5567 0 5.4824-1
 H, KJ/KG         -137.58  -537.17 -1862.86
 U, KJ/KG         -858.30 -1180.38 -2238.96
 G, KJ/KG        -21915.0 -19972.5 -13227.0
 S, KJ/(KG)(K)     8.5382   8.5382   8.5382

 M, (1/n)          29.425   29.425   29.425
 Cp, KJ/(KG)(K)    1.4650   1.4477   1.3406
 GAMMAs            1.2390   1.2425   1.2671
 SON VEL,M/SEC      945.0    894.0    690.3
 MACH NUMBER        0.000    1.000    2.691

 PERFORMANCE PARAMETERS

 Ae/At                      1.0000   4.0000
 CSTAR, M/SEC               1293.4   1293.4
 CF                         0.6912   1.4362
 Ivac, M/SEC                1613.5   2060.0
 Isp, M/SEC                  894.0   1857.6

 MASS FRACTIONS

 *CO             0.00351   *CO2            0.23204   HO2             0.00003
 *H2             0.00003   H2O             0.08037   *NO             0.01363
 NO2             0.00008   *N2             0.58294   N2O             0.00001
 *O              0.00038   *OH             0.00355   *O2             0.08341

  * THERMODYNAMIC PROPERTIES FITTED TO 20000.K

 NOTE. WEIGHT FRACTION OF FUEL IN TOTAL FUELS AND OF OXIDANT IN TOTAL OXIDANTS

           THEORETICAL ROCKET PERFORMANCE ASSUMING FROZEN COMPOSITION

 Pin =   778.9 PSIA
 CASE = _______________

             REACTANT                    WT FRACTION      ENERGY      TEMP
                                          (SEE NOTE)     KJ/KG-MOL      K  
 FUEL        paraffin                     1.0000000  -1860600.000    298.150
 OXIDANT     N2O                          1.0000000         0.000      0.000

 O/F=   12.50000  %FUEL=  7.407407  R,EQ.RATIO= 0.731082  PHI,EQ.RATIO= 0.731082

                 CHAMBER   THROAT     EXIT
 Pinf/P            1.0000   1.7977   25.553
 P, BAR            53.702   29.873   2.1016
 T, K             2550.89  2276.56  1331.19
 RHO, KG/CU M    7.4505 0 4.6439 0 5.5872-1
 H, KJ/KG         -137.58  -537.21 -1863.04
 U, KJ/KG         -858.37 -1180.48 -2239.19
 G, KJ/KG        -21904.0 -19962.8 -13221.9
 S, KJ/(KG)(K)     8.5329   8.5329   8.5329

 M, (1/n)          29.425   29.425   29.425
 Cp, KJ/(KG)(K)    1.4651   1.4478   1.3406
 GAMMAs            1.2390   1.2425   1.2671
 SON VEL,M/SEC      945.0    894.0    690.4
 MACH NUMBER        0.000    1.000    2.691

 PERFORMANCE PARAMETERS

 Ae/At                      1.0000   4.0000
 CSTAR, M/SEC               1293.5   1293.5
 CF                         0.6912   1.4362
 Ivac, M/SEC                1613.5   2060.2
 Isp, M/SEC                  894.0   1857.7

 MASS FRACTIONS

 *CO             0.00349   *CO2            0.23208   HO2             0.00003
 *H2             0.00003   H2O             0.08038   *NO             0.01364
 NO2             0.00008   *N2             0.58294   N2O             0.00001
 *O              0.00038   *OH             0.00354   *O2             0.08340

  * THERMODYNAMIC PROPERTIES FITTED TO 20000.K

 NOTE. WEIGHT FRACTION OF FUEL IN TOTAL FUELS AND OF OXIDANT IN TOTAL OXIDANTS

           THEORETICAL ROCKET PERFORMANCE ASSUMING FROZEN COMPOSITION

 Pin =   793.6 PSIA
 CASE = _______________

             REACTANT                    WT FRACTION      ENERGY      TEMP
                                          (SEE NOTE)     KJ/KG-MOL      K  
 FUEL        paraffin                     1.0000000  -1860600.000    298.150
 OXIDANT     N2O                          1.0000000         0.000      0.000

 O/F=   12.50000  %FUEL=  7.407407  R,EQ.RATIO= 0.731082  PHI,EQ.RATIO= 0.731082

                 CHAMBER   THROAT     EXIT
 Pinf/P            1.0000   1.7977   25.552
 P, BAR            54.715   30.436   2.1413
 T, K             2551.21  2276.85  1331.40
 RHO, KG/CU M    7.5903 0 4.7310 0 5.6921-1
 H, KJ/KG         -137.58  -537.25 -1863.22
 U, KJ/KG         -858.44 -1180.59 -2239.42
 G, KJ/KG        -21893.2 -19953.3 -13216.8
 S, KJ/(KG)(K)     8.5276   8.5276   8.5276

 M, (1/n)          29.426   29.426   29.426
 Cp, KJ/(KG)(K)    1.4651   1.4478   1.3407
 GAMMAs            1.2389   1.2425   1.2670
 SON VEL,M/SEC      945.0    894.1    690.4
 MACH NUMBER        0.000    1.000    2.691

 PERFORMANCE PARAMETERS

 Ae/At                      1.0000   4.0000
 CSTAR, M/SEC               1293.6   1293.6
 CF                         0.6912   1.4362
 Ivac, M/SEC                1613.6   2060.3
 Isp, M/SEC                  894.1   1857.8

 MASS FRACTIONS

 *CO             0.00346   *CO2            0.23212   HO2             0.00003
 *H2             0.00003   H2O             0.08039   *NO             0.01364
 NO2             0.00008   *N2             0.58294   N2O             0.00001
 *O              0.00038   *OH             0.00353   *O2             0.08339

  * THERMODYNAMIC PROPERTIES FITTED TO 20000.K

 NOTE. WEIGHT FRACTION OF FUEL IN TOTAL FUELS AND OF OXIDANT IN TOTAL OXIDANTS

           THEORETICAL ROCKET PERFORMANCE ASSUMING FROZEN COMPOSITION

 Pin =   808.3 PSIA
 CASE = _______________

             REACTANT                    WT FRACTION      ENERGY      TEMP
                                          (SEE NOTE)     KJ/KG-MOL      K  
 FUEL        paraffin                     1.0000000  -1860600.000    298.150
 OXIDANT     N2O                          1.0000000         0.000      0.000

 O/F=   12.50000  %FUEL=  7.407407  R,EQ.RATIO= 0.731082  PHI,EQ.RATIO= 0.731082

                 CHAMBER   THROAT     EXIT
 Pinf/P            1.0000   1.7977   25.551
 P, BAR            55.729   31.000   2.1810
 T, K             2551.51  2277.13  1331.61
 RHO, KG/CU M    7.7302 0 4.8182 0 5.7969-1
 H, KJ/KG         -137.58  -537.28 -1863.39
 U, KJ/KG         -858.51 -1180.69 -2239.64
 G, KJ/KG        -21882.6 -19943.9 -13211.9
 S, KJ/(KG)(K)     8.5224   8.5224   8.5224

 M, (1/n)          29.427   29.427   29.427
 Cp, KJ/(KG)(K)    1.4651   1.4478   1.3407
 GAMMAs            1.2389   1.2425   1.2670
 SON VEL,M/SEC      945.1    894.1    690.4
 MACH NUMBER        0.000    1.000    2.691

 PERFORMANCE PARAMETERS

 Ae/At                      1.0000   4.0000
 CSTAR, M/SEC               1293.6   1293.6
 CF                         0.6912   1.4361
 Ivac, M/SEC                1613.7   2060.4
 Isp, M/SEC                  894.1   1857.9

 MASS FRACTIONS

 *CO             0.00343   *CO2            0.23216   HNO2            0.00001
 HO2             0.00003   *H2             0.00003   H2O             0.08040
 *NO             0.01365   NO2             0.00008   *N2             0.58293
 N2O             0.00001   *O              0.00037   *OH             0.00352
 *O2             0.08338

  * THERMODYNAMIC PROPERTIES FITTED TO 20000.K

 NOTE. WEIGHT FRACTION OF FUEL IN TOTAL FUELS AND OF OXIDANT IN TOTAL OXIDANTS

           THEORETICAL ROCKET PERFORMANCE ASSUMING FROZEN COMPOSITION

 Pin =   823.0 PSIA
 CASE = _______________

             REACTANT                    WT FRACTION      ENERGY      TEMP
                                          (SEE NOTE)     KJ/KG-MOL      K  
 FUEL        paraffin                     1.0000000  -1860600.000    298.150
 OXIDANT     N2O                          1.0000000         0.000      0.000

 O/F=   12.50000  %FUEL=  7.407407  R,EQ.RATIO= 0.731082  PHI,EQ.RATIO= 0.731082

                 CHAMBER   THROAT     EXIT
 Pinf/P            1.0000   1.7977   25.551
 P, BAR            56.742   31.564   2.2208
 T, K             2551.80  2277.41  1331.81
 RHO, KG/CU M    7.8700 0 4.9053 0 5.9017-1
 H, KJ/KG         -137.58  -537.32 -1863.56
 U, KJ/KG         -858.57 -1180.78 -2239.86
 G, KJ/KG        -21872.1 -19934.7 -13207.0
 S, KJ/(KG)(K)     8.5173   8.5173   8.5173

 M, (1/n)          29.427   29.427   29.427
 Cp, KJ/(KG)(K)    1.4651   1.4478   1.3408
 GAMMAs            1.2389   1.2425   1.2670
 SON VEL,M/SEC      945.1    894.1    690.5
 MACH NUMBER        0.000    1.000    2.691

 PERFORMANCE PARAMETERS

 Ae/At                      1.0000   4.0000
 CSTAR, M/SEC               1293.7   1293.7
 CF                         0.6911   1.4361
 Ivac, M/SEC                1613.8   2060.5
 Isp, M/SEC                  894.1   1857.9

 MASS FRACTIONS

 *CO             0.00341   *CO2            0.23220   HNO2            0.00001
 HO2             0.00003   *H2             0.00003   H2O             0.08041
 *NO             0.01365   NO2             0.00008   *N2             0.58293
 N2O             0.00001   *O              0.00037   *OH             0.00350
 *O2             0.08336

  * THERMODYNAMIC PROPERTIES FITTED TO 20000.K

 NOTE. WEIGHT FRACTION OF FUEL IN TOTAL FUELS AND OF OXIDANT IN TOTAL OXIDANTS

           THEORETICAL ROCKET PERFORMANCE ASSUMING FROZEN COMPOSITION

 Pin =   837.7 PSIA
 CASE = _______________

             REACTANT                    WT FRACTION      ENERGY      TEMP
                                          (SEE NOTE)     KJ/KG-MOL      K  
 FUEL        paraffin                     1.0000000  -1860600.000    298.150
 OXIDANT     N2O                          1.0000000         0.000      0.000

 O/F=   12.50000  %FUEL=  7.407407  R,EQ.RATIO= 0.731082  PHI,EQ.RATIO= 0.731082

                 CHAMBER   THROAT     EXIT
 Pinf/P            1.0000   1.7977   25.550
 P, BAR            57.755   32.128   2.2605
 T, K             2552.09  2277.68  1332.00
 RHO, KG/CU M    8.0098 0 4.9925 0 6.0065-1
 H, KJ/KG         -137.58  -537.35 -1863.73
 U, KJ/KG         -858.64 -1180.88 -2240.07
 G, KJ/KG        -21861.8 -19925.7 -13202.2
 S, KJ/(KG)(K)     8.5123   8.5123   8.5123

 M, (1/n)          29.428   29.428   29.428
 Cp, KJ/(KG)(K)    1.4652   1.4479   1.3408
 GAMMAs            1.2389   1.2425   1.2670
 SON VEL,M/SEC      945.2    894.2    690.5
 MACH NUMBER        0.000    1.000    2.691

 PERFORMANCE PARAMETERS

 Ae/At                      1.0000   4.0000
 CSTAR, M/SEC               1293.8   1293.8
 CF                         0.6911   1.4361
 Ivac, M/SEC                1613.9   2060.6
 Isp, M/SEC                  894.2   1858.0

 MASS FRACTIONS

 *CO             0.00339   *CO2            0.23224   HNO2            0.00001
 HO2             0.00003   *H2             0.00003   H2O             0.08041
 *NO             0.01366   NO2             0.00008   *N2             0.58293
 N2O             0.00001   *O              0.00037   *OH             0.00349
 *O2             0.08335

  * THERMODYNAMIC PROPERTIES FITTED TO 20000.K

 NOTE. WEIGHT FRACTION OF FUEL IN TOTAL FUELS AND OF OXIDANT IN TOTAL OXIDANTS

           THEORETICAL ROCKET PERFORMANCE ASSUMING FROZEN COMPOSITION

 Pin =   852.4 PSIA
 CASE = _______________

             REACTANT                    WT FRACTION      ENERGY      TEMP
                                          (SEE NOTE)     KJ/KG-MOL      K  
 FUEL        paraffin                     1.0000000  -1860600.000    298.150
 OXIDANT     N2O                          1.0000000         0.000      0.000

 O/F=   12.50000  %FUEL=  7.407407  R,EQ.RATIO= 0.731082  PHI,EQ.RATIO= 0.731082

                 CHAMBER   THROAT     EXIT
 Pinf/P            1.0000   1.7977   25.549
 P, BAR            58.768   32.692   2.3002
 T, K             2552.38  2277.94  1332.20
 RHO, KG/CU M    8.1496 0 5.0796 0 6.1113-1
 H, KJ/KG         -137.58  -537.39 -1863.89
 U, KJ/KG         -858.70 -1180.97 -2240.27
 G, KJ/KG        -21851.7 -19916.8 -13197.4
 S, KJ/(KG)(K)     8.5074   8.5074   8.5074

 M, (1/n)          29.429   29.429   29.429
 Cp, KJ/(KG)(K)    1.4652   1.4479   1.3408
 GAMMAs            1.2389   1.2424   1.2670
 SON VEL,M/SEC      945.2    894.2    690.6
 MACH NUMBER        0.000    1.000    2.691

 PERFORMANCE PARAMETERS

 Ae/At                      1.0000   4.0000
 CSTAR, M/SEC               1293.8   1293.8
 CF                         0.6911   1.4361
 Ivac, M/SEC                1613.9   2060.7
 Isp, M/SEC                  894.2   1858.1

 MASS FRACTIONS

 *CO             0.00336   *CO2            0.23228   HNO2            0.00001
 HO2             0.00003   *H2             0.00003   H2O             0.08042
 *NO             0.01367   NO2             0.00008   *N2             0.58293
 N2O             0.00001   *O              0.00037   *OH             0.00348
 *O2             0.08334

  * THERMODYNAMIC PROPERTIES FITTED TO 20000.K

 NOTE. WEIGHT FRACTION OF FUEL IN TOTAL FUELS AND OF OXIDANT IN TOTAL OXIDANTS

           THEORETICAL ROCKET PERFORMANCE ASSUMING FROZEN COMPOSITION

 Pin =   867.1 PSIA
 CASE = _______________

             REACTANT                    WT FRACTION      ENERGY      TEMP
                                          (SEE NOTE)     KJ/KG-MOL      K  
 FUEL        paraffin                     1.0000000  -1860600.000    298.150
 OXIDANT     N2O                          1.0000000         0.000      0.000

 O/F=   12.50000  %FUEL=  7.407407  R,EQ.RATIO= 0.731082  PHI,EQ.RATIO= 0.731082

                 CHAMBER   THROAT     EXIT
 Pinf/P            1.0000   1.7977   25.549
 P, BAR            59.782   33.255   2.3399
 T, K             2552.65  2278.20  1332.39
 RHO, KG/CU M    8.2894 0 5.1667 0 6.2161-1
 H, KJ/KG         -137.58  -537.42 -1864.05
 U, KJ/KG         -858.76 -1181.06 -2240.48
 G, KJ/KG        -21841.7 -19908.0 -13192.7
 S, KJ/(KG)(K)     8.5026   8.5026   8.5026

 M, (1/n)          29.430   29.430   29.430
 Cp, KJ/(KG)(K)    1.4652   1.4479   1.3409
 GAMMAs            1.2389   1.2424   1.2669
 SON VEL,M/SEC      945.2    894.2    690.6
 MACH NUMBER        0.000    1.000    2.691

 PERFORMANCE PARAMETERS

 Ae/At                      1.0000   4.0000
 CSTAR, M/SEC               1293.9   1293.9
 CF                         0.6911   1.4361
 Ivac, M/SEC                1614.0   2060.8
 Isp, M/SEC                  894.2   1858.2

 MASS FRACTIONS

 *CO             0.00334   *CO2            0.23231   HNO2            0.00001
 HO2             0.00003   *H2             0.00003   H2O             0.08043
 *NO             0.01367   NO2             0.00008   *N2             0.58292
 N2O             0.00001   *O              0.00036   *OH             0.00347
 *O2             0.08333

  * THERMODYNAMIC PROPERTIES FITTED TO 20000.K

 NOTE. WEIGHT FRACTION OF FUEL IN TOTAL FUELS AND OF OXIDANT IN TOTAL OXIDANTS

           THEORETICAL ROCKET PERFORMANCE ASSUMING FROZEN COMPOSITION

 Pin =   881.8 PSIA
 CASE = _______________

             REACTANT                    WT FRACTION      ENERGY      TEMP
                                          (SEE NOTE)     KJ/KG-MOL      K  
 FUEL        paraffin                     1.0000000  -1860600.000    298.150
 OXIDANT     N2O                          1.0000000         0.000      0.000

 O/F=   12.50000  %FUEL=  7.407407  R,EQ.RATIO= 0.731082  PHI,EQ.RATIO= 0.731082

                 CHAMBER   THROAT     EXIT
 Pinf/P            1.0000   1.7977   25.548
 P, BAR            60.795   33.819   2.3797
 T, K             2552.92  2278.46  1332.57
 RHO, KG/CU M    8.4292 0 5.2538 0 6.3209-1
 H, KJ/KG         -137.58  -537.45 -1864.20
 U, KJ/KG         -858.82 -1181.15 -2240.67
 G, KJ/KG        -21831.9 -19899.3 -13188.1
 S, KJ/(KG)(K)     8.4978   8.4978   8.4978

 M, (1/n)          29.430   29.430   29.430
 Cp, KJ/(KG)(K)    1.4652   1.4479   1.3409
 GAMMAs            1.2389   1.2424   1.2669
 SON VEL,M/SEC      945.3    894.3    690.6
 MACH NUMBER        0.000    1.000    2.691

 PERFORMANCE PARAMETERS

 Ae/At                      1.0000   4.0000
 CSTAR, M/SEC               1293.9   1293.9
 CF                         0.6911   1.4361
 Ivac, M/SEC                1614.1   2060.9
 Isp, M/SEC                  894.3   1858.3

 MASS FRACTIONS

 *CO             0.00332   *CO2            0.23235   HNO2            0.00001
 HO2             0.00003   *H2             0.00003   H2O             0.08044
 *NO             0.01368   NO2             0.00008   *N2             0.58292
 N2O             0.00001   *O              0.00036   *OH             0.00345
 *O2             0.08332

  * THERMODYNAMIC PROPERTIES FITTED TO 20000.K

 NOTE. WEIGHT FRACTION OF FUEL IN TOTAL FUELS AND OF OXIDANT IN TOTAL OXIDANTS

           THEORETICAL ROCKET PERFORMANCE ASSUMING FROZEN COMPOSITION

 Pin =   896.5 PSIA
 CASE = _______________

             REACTANT                    WT FRACTION      ENERGY      TEMP
                                          (SEE NOTE)     KJ/KG-MOL      K  
 FUEL        paraffin                     1.0000000  -1860600.000    298.150
 OXIDANT     N2O                          1.0000000         0.000      0.000

 O/F=   12.50000  %FUEL=  7.407407  R,EQ.RATIO= 0.731082  PHI,EQ.RATIO= 0.731082

                 CHAMBER   THROAT     EXIT
 Pinf/P            1.0000   1.7976   25.547
 P, BAR            61.808   34.383   2.4194
 T, K             2553.19  2278.70  1332.75
 RHO, KG/CU M    8.5690 0 5.3410 0 6.4257-1
 H, KJ/KG         -137.58  -537.48 -1864.35
 U, KJ/KG         -858.88 -1181.24 -2240.87
 G, KJ/KG        -21822.2 -19890.8 -13183.6
 S, KJ/(KG)(K)     8.4931   8.4931   8.4931

 M, (1/n)          29.431   29.431   29.431
 Cp, KJ/(KG)(K)    1.4652   1.4480   1.3409
 GAMMAs            1.2389   1.2424   1.2669
 SON VEL,M/SEC      945.3    894.3    690.7
 MACH NUMBER        0.000    1.000    2.691

 PERFORMANCE PARAMETERS

 Ae/At                      1.0000   4.0000
 CSTAR, M/SEC               1294.0   1294.0
 CF                         0.6911   1.4361
 Ivac, M/SEC                1614.1   2061.0
 Isp, M/SEC                  894.3   1858.4

 MASS FRACTIONS

 *CO             0.00329   *CO2            0.23238   HNO2            0.00001
 HO2             0.00003   *H2             0.00003   H2O             0.08045
 *NO             0.01368   NO2             0.00008   *N2             0.58292
 N2O             0.00001   *O              0.00036   *OH             0.00344
 *O2             0.08331

  * THERMODYNAMIC PROPERTIES FITTED TO 20000.K

 NOTE. WEIGHT FRACTION OF FUEL IN TOTAL FUELS AND OF OXIDANT IN TOTAL OXIDANTS

           THEORETICAL ROCKET PERFORMANCE ASSUMING FROZEN COMPOSITION

 Pin =   911.2 PSIA
 CASE = _______________

             REACTANT                    WT FRACTION      ENERGY      TEMP
                                          (SEE NOTE)     KJ/KG-MOL      K  
 FUEL        paraffin                     1.0000000  -1860600.000    298.150
 OXIDANT     N2O                          1.0000000         0.000      0.000

 O/F=   12.50000  %FUEL=  7.407407  R,EQ.RATIO= 0.731082  PHI,EQ.RATIO= 0.731082

                 CHAMBER   THROAT     EXIT
 Pinf/P            1.0000   1.7976   25.547
 P, BAR            62.822   34.947   2.4591
 T, K             2553.45  2278.94  1332.93
 RHO, KG/CU M    8.7087 0 5.4281 0 6.5305-1
 H, KJ/KG         -137.58  -537.51 -1864.50
 U, KJ/KG         -858.94 -1181.33 -2241.06
 G, KJ/KG        -21812.7 -19882.5 -13179.1
 S, KJ/(KG)(K)     8.4886   8.4886   8.4886

 M, (1/n)          29.431   29.431   29.431
 Cp, KJ/(KG)(K)    1.4653   1.4480   1.3410
 GAMMAs            1.2389   1.2424   1.2669
 SON VEL,M/SEC      945.3    894.4    690.7
 MACH NUMBER        0.000    1.000    2.691

 PERFORMANCE PARAMETERS

 Ae/At                      1.0000   4.0000
 CSTAR, M/SEC               1294.1   1294.1
 CF                         0.6911   1.4361
 Ivac, M/SEC                1614.2   2061.1
 Isp, M/SEC                  894.4   1858.5

 MASS FRACTIONS

 *CO             0.00327   *CO2            0.23242   HNO2            0.00001
 HO2             0.00003   *H2             0.00003   H2O             0.08046
 *NO             0.01369   NO2             0.00009   *N2             0.58291
 N2O             0.00001   *O              0.00036   *OH             0.00343
 *O2             0.08330

  * THERMODYNAMIC PROPERTIES FITTED TO 20000.K

 NOTE. WEIGHT FRACTION OF FUEL IN TOTAL FUELS AND OF OXIDANT IN TOTAL OXIDANTS

           THEORETICAL ROCKET PERFORMANCE ASSUMING FROZEN COMPOSITION

 Pin =   925.8 PSIA
 CASE = _______________

             REACTANT                    WT FRACTION      ENERGY      TEMP
                                          (SEE NOTE)     KJ/KG-MOL      K  
 FUEL        paraffin                     1.0000000  -1860600.000    298.150
 OXIDANT     N2O                          1.0000000         0.000      0.000

 O/F=   12.50000  %FUEL=  7.407407  R,EQ.RATIO= 0.731082  PHI,EQ.RATIO= 0.731082

                 CHAMBER   THROAT     EXIT
 Pinf/P            1.0000   1.7976   25.546
 P, BAR            63.835   35.510   2.4988
 T, K             2553.70  2279.18  1333.10
 RHO, KG/CU M    8.8485 0 5.5152 0 6.6352-1
 H, KJ/KG         -137.58  -537.54 -1864.64
 U, KJ/KG         -859.00 -1181.41 -2241.24
 G, KJ/KG        -21803.3 -19874.2 -13174.7
 S, KJ/(KG)(K)     8.4840   8.4840   8.4840

 M, (1/n)          29.432   29.432   29.432
 Cp, KJ/(KG)(K)    1.4653   1.4480   1.3410
 GAMMAs            1.2388   1.2424   1.2669
 SON VEL,M/SEC      945.4    894.4    690.7
 MACH NUMBER        0.000    1.000    2.691

 PERFORMANCE PARAMETERS

 Ae/At                      1.0000   4.0000
 CSTAR, M/SEC               1294.1   1294.1
 CF                         0.6911   1.4361
 Ivac, M/SEC                1614.3   2061.2
 Isp, M/SEC                  894.4   1858.5

 MASS FRACTIONS

 *CO             0.00325   *CO2            0.23245   HNO2            0.00001
 HO2             0.00003   *H2             0.00003   H2O             0.08046
 *NO             0.01369   NO2             0.00009   *N2             0.58291
 N2O             0.00001   *O              0.00035   *OH             0.00342
 *O2             0.08329

  * THERMODYNAMIC PROPERTIES FITTED TO 20000.K

 NOTE. WEIGHT FRACTION OF FUEL IN TOTAL FUELS AND OF OXIDANT IN TOTAL OXIDANTS

           THEORETICAL ROCKET PERFORMANCE ASSUMING FROZEN COMPOSITION

 Pin =   940.5 PSIA
 CASE = _______________

             REACTANT                    WT FRACTION      ENERGY      TEMP
                                          (SEE NOTE)     KJ/KG-MOL      K  
 FUEL        paraffin                     1.0000000  -1860600.000    298.150
 OXIDANT     N2O                          1.0000000         0.000      0.000

 O/F=   12.50000  %FUEL=  7.407407  R,EQ.RATIO= 0.731082  PHI,EQ.RATIO= 0.731082

                 CHAMBER   THROAT     EXIT
 Pinf/P            1.0000   1.7976   25.545
 P, BAR            64.848   36.074   2.5385
 T, K             2553.95  2279.41  1333.27
 RHO, KG/CU M    8.9883 0 5.6023 0 6.7400-1
 H, KJ/KG         -137.58  -537.57 -1864.79
 U, KJ/KG         -859.05 -1181.49 -2241.42
 G, KJ/KG        -21794.0 -19866.1 -13170.4
 S, KJ/(KG)(K)     8.4796   8.4796   8.4796

 M, (1/n)          29.433   29.433   29.433
 Cp, KJ/(KG)(K)    1.4653   1.4480   1.3410
 GAMMAs            1.2388   1.2424   1.2669
 SON VEL,M/SEC      945.4    894.4    690.8
 MACH NUMBER        0.000    1.000    2.691

 PERFORMANCE PARAMETERS

 Ae/At                      1.0000   4.0000
 CSTAR, M/SEC               1294.2   1294.2
 CF                         0.6911   1.4361
 Ivac, M/SEC                1614.3   2061.3
 Isp, M/SEC                  894.4   1858.6

 MASS FRACTIONS

 *CO             0.00323   *CO2            0.23248   HNO2            0.00001
 HO2             0.00003   *H2             0.00003   H2O             0.08047
 *NO             0.01370   NO2             0.00009   *N2             0.58291
 N2O             0.00001   *O              0.00035   *OH             0.00341
 *O2             0.08328

  * THERMODYNAMIC PROPERTIES FITTED TO 20000.K

 NOTE. WEIGHT FRACTION OF FUEL IN TOTAL FUELS AND OF OXIDANT IN TOTAL OXIDANTS

           THEORETICAL ROCKET PERFORMANCE ASSUMING FROZEN COMPOSITION

 Pin =   955.2 PSIA
 CASE = _______________

             REACTANT                    WT FRACTION      ENERGY      TEMP
                                          (SEE NOTE)     KJ/KG-MOL      K  
 FUEL        paraffin                     1.0000000  -1860600.000    298.150
 OXIDANT     N2O                          1.0000000         0.000      0.000

 O/F=   12.50000  %FUEL=  7.407407  R,EQ.RATIO= 0.731082  PHI,EQ.RATIO= 0.731082

                 CHAMBER   THROAT     EXIT
 Pinf/P            1.0000   1.7976   25.545
 P, BAR            65.861   36.638   2.5783
 T, K             2554.20  2279.64  1333.43
 RHO, KG/CU M    9.1280 0 5.6894 0 6.8448-1
 H, KJ/KG         -137.58  -537.60 -1864.92
 U, KJ/KG         -859.11 -1181.57 -2241.60
 G, KJ/KG        -21784.9 -19858.0 -13166.1
 S, KJ/(KG)(K)     8.4752   8.4752   8.4752

 M, (1/n)          29.433   29.433   29.433
 Cp, KJ/(KG)(K)    1.4653   1.4480   1.3411
 GAMMAs            1.2388   1.2424   1.2669
 SON VEL,M/SEC      945.4    894.5    690.8
 MACH NUMBER        0.000    1.000    2.691

 PERFORMANCE PARAMETERS

 Ae/At                      1.0000   4.0000
 CSTAR, M/SEC               1294.2   1294.2
 CF                         0.6911   1.4361
 Ivac, M/SEC                1614.4   2061.3
 Isp, M/SEC                  894.5   1858.7

 MASS FRACTIONS

 *CO             0.00321   *CO2            0.23251   HNO2            0.00001
 HO2             0.00003   *H2             0.00003   H2O             0.08048
 *NO             0.01370   NO2             0.00009   *N2             0.58291
 N2O             0.00001   *O              0.00035   *OH             0.00340
 *O2             0.08327

  * THERMODYNAMIC PROPERTIES FITTED TO 20000.K

 NOTE. WEIGHT FRACTION OF FUEL IN TOTAL FUELS AND OF OXIDANT IN TOTAL OXIDANTS

           THEORETICAL ROCKET PERFORMANCE ASSUMING FROZEN COMPOSITION

 Pin =   969.9 PSIA
 CASE = _______________

             REACTANT                    WT FRACTION      ENERGY      TEMP
                                          (SEE NOTE)     KJ/KG-MOL      K  
 FUEL        paraffin                     1.0000000  -1860600.000    298.150
 OXIDANT     N2O                          1.0000000         0.000      0.000

 O/F=   12.50000  %FUEL=  7.407407  R,EQ.RATIO= 0.731082  PHI,EQ.RATIO= 0.731082

                 CHAMBER   THROAT     EXIT
 Pinf/P            1.0000   1.7976   25.544
 P, BAR            66.874   37.202   2.6180
 T, K             2554.43  2279.86  1333.60
 RHO, KG/CU M    9.2678 0 5.7765 0 6.9495-1
 H, KJ/KG         -137.58  -537.63 -1865.06
 U, KJ/KG         -859.16 -1181.65 -2241.78
 G, KJ/KG        -21775.9 -19850.1 -13161.8
 S, KJ/(KG)(K)     8.4709   8.4709   8.4709

 M, (1/n)          29.434   29.434   29.434
 Cp, KJ/(KG)(K)    1.4653   1.4481   1.3411
 GAMMAs            1.2388   1.2424   1.2668
 SON VEL,M/SEC      945.5    894.5    690.8
 MACH NUMBER        0.000    1.000    2.691

 PERFORMANCE PARAMETERS

 Ae/At                      1.0000   4.0000
 CSTAR, M/SEC               1294.3   1294.3
 CF                         0.6911   1.4361
 Ivac, M/SEC                1614.5   2061.4
 Isp, M/SEC                  894.5   1858.8

 MASS FRACTIONS

 *CO             0.00319   *CO2            0.23255   HNO2            0.00001
 HO2             0.00003   *H2             0.00003   H2O             0.08049
 *NO             0.01371   NO2             0.00009   *N2             0.58290
 N2O             0.00001   *O              0.00035   *OH             0.00339
 *O2             0.08326

  * THERMODYNAMIC PROPERTIES FITTED TO 20000.K

 NOTE. WEIGHT FRACTION OF FUEL IN TOTAL FUELS AND OF OXIDANT IN TOTAL OXIDANTS

           THEORETICAL ROCKET PERFORMANCE ASSUMING FROZEN COMPOSITION

 Pin =   984.6 PSIA
 CASE = _______________

             REACTANT                    WT FRACTION      ENERGY      TEMP
                                          (SEE NOTE)     KJ/KG-MOL      K  
 FUEL        paraffin                     1.0000000  -1860600.000    298.150
 OXIDANT     N2O                          1.0000000         0.000      0.000

 O/F=   12.50000  %FUEL=  7.407407  R,EQ.RATIO= 0.731082  PHI,EQ.RATIO= 0.731082

                 CHAMBER   THROAT     EXIT
 Pinf/P            1.0000   1.7976   25.544
 P, BAR            67.888   37.766   2.6577
 T, K             2554.67  2280.08  1333.76
 RHO, KG/CU M    9.4075 0 5.8636 0 7.0543-1
 H, KJ/KG         -137.58  -537.66 -1865.19
 U, KJ/KG         -859.21 -1181.73 -2241.95
 G, KJ/KG        -21767.0 -19842.3 -13157.6
 S, KJ/(KG)(K)     8.4666   8.4666   8.4666

 M, (1/n)          29.434   29.434   29.434
 Cp, KJ/(KG)(K)    1.4653   1.4481   1.3411
 GAMMAs            1.2388   1.2423   1.2668
 SON VEL,M/SEC      945.5    894.5    690.9
 MACH NUMBER        0.000    1.000    2.691

 PERFORMANCE PARAMETERS

 Ae/At                      1.0000   4.0000
 CSTAR, M/SEC               1294.3   1294.3
 CF                         0.6911   1.4361
 Ivac, M/SEC                1614.5   2061.5
 Isp, M/SEC                  894.5   1858.8

 MASS FRACTIONS

[...]
 FUEL        paraffin                     1.0000000  -1860600.000    298.150
 OXIDANT     N2O                          1.0000000         0.000      0.000

 O/F=    1.00000  %FUEL= 50.000000  R,EQ.RATIO= 9.138527  PHI,EQ.RATIO= 9.138527

                 CHAMBER   THROAT     EXIT
 Pinf/P            1.0000   1.7620   23.037
 P, BAR            62.822   35.655   2.7270
 T, K             1142.72  1047.76   684.02
 RHO, KG/CU M    1.6028 1 9.9214 0 1.1623 0
 H, KJ/KG         -928.66 -1141.35 -1897.13
 U, KJ/KG        -1320.60 -1500.72 -2131.74
 G, KJ/KG        -11043.9 -10416.1 -7952.07
 S, KJ/(KG)(K)     8.8520   8.8520   8.8520

 M, (1/n)          24.241   24.241   24.241
 MW, MOL WT        15.275   15.275   15.275
 Cp, KJ/(KG)(K)    2.2682   2.2106   1.9256
 GAMMAs            1.1782   1.1837   1.2167
 SON VEL,M/SEC      679.5    652.2    534.3
 MACH NUMBER        0.000    1.000    2.605

 PERFORMANCE PARAMETERS

 Ae/At                      1.0000   4.0000
 CSTAR, M/SEC                970.9    970.9
 CF                         0.6718   1.4335
 Ivac, M/SEC                1203.2   1560.3
 Isp, M/SEC                  652.2   1391.7

 MASS FRACTIONS

 CH4             0.10590   *CO             0.12167   *CO2            0.05587
 C2H4            0.00001   C2H6            0.00005   HCN             0.00002
 *H2             0.02654   H2O             0.08066   NH3             0.00106
 *N2             0.31736   C(gr)           0.29086

  * THERMODYNAMIC PROPERTIES FITTED TO 20000.K

 NOTE. WEIGHT FRACTION OF FUEL IN TOTAL FUELS AND OF OXIDANT IN TOTAL OXIDANTS

           THEORETICAL ROCKET PERFORMANCE ASSUMING FROZEN COMPOSITION

 Pin =   925.8 PSIA
 CASE = _______________

             REACTANT                    WT FRACTION      ENERGY      TEMP
                                          (SEE NOTE)     KJ/KG-MOL      K  
 FUEL        paraffin                     1.0000000  -1860600.000    298.150
 OXIDANT     N2O                          1.0000000         0.000      0.000

 O/F=    1.00000  %FUEL= 50.000000  R,EQ.RATIO= 9.138527  PHI,EQ.RATIO= 9.138527

                 CHAMBER   THROAT     EXIT
 Pinf/P            1.0000   1.7619   23.028
 P, BAR            63.835   36.232   2.7720
 T, K             1143.66  1048.70   684.89
 RHO, KG/CU M    1.6282 1 1.0078 1 1.1806 0
 H, KJ/KG         -928.66 -1141.39 -1897.49
 U, KJ/KG        -1320.71 -1500.90 -2132.28
 G, KJ/KG        -11046.0 -10418.7 -7956.39
 S, KJ/(KG)(K)     8.8465   8.8465   8.8465

 M, (1/n)          24.254   24.254   24.254
 MW, MOL WT        15.283   15.283   15.283
 Cp, KJ/(KG)(K)    2.2686   2.2110   1.9261
 GAMMAs            1.1780   1.1835   1.2165
 SON VEL,M/SEC      679.6    652.3    534.4
 MACH NUMBER        0.000    1.000    2.605

 PERFORMANCE PARAMETERS

 Ae/At                      1.0000   4.0000
 CSTAR, M/SEC                971.0    971.0
 CF                         0.6717   1.4335
 Ivac, M/SEC                1203.4   1560.7
 Isp, M/SEC                  652.3   1392.0

 MASS FRACTIONS

 CH4             0.10618   *CO             0.12156   *CO2            0.05587
 C2H4            0.00001   C2H6            0.00005   HCN             0.00002
 *H2             0.02646   H2O             0.08073   NH3             0.00107
 *N2             0.31735   C(gr)           0.29069

  * THERMODYNAMIC PROPERTIES FITTED TO 20000.K

 NOTE. WEIGHT FRACTION OF FUEL IN TOTAL FUELS AND OF OXIDANT IN TOTAL OXIDANTS

           THEORETICAL ROCKET PERFORMANCE ASSUMING FROZEN COMPOSITION

 Pin =   940.5 PSIA
 CASE = _______________

             REACTANT                    WT FRACTION      ENERGY      TEMP
                                          (SEE NOTE)     KJ/KG-MOL      K  
 FUEL        paraffin                     1.0000000  -1860600.000    298.150
 OXIDANT     N2O                          1.0000000         0.000      0.000

 O/F=    1.00000  %FUEL= 50.000000  R,EQ.RATIO= 9.138527  PHI,EQ.RATIO= 9.138527

                 CHAMBER   THROAT     EXIT
 Pinf/P            1.0000   1.7618   23.020
 P, BAR            64.848   36.809   2.8170
 T, K             1144.59  1049.63   685.75
 RHO, KG/CU M    1.6536 1 1.0235 1 1.1989 0
 H, KJ/KG         -928.66 -1141.44 -1897.85
 U, KJ/KG        -1320.83 -1501.07 -2132.81
 G, KJ/KG        -11048.0 -10421.3 -7960.64
 S, KJ/(KG)(K)     8.8411   8.8411   8.8411

 M, (1/n)          24.267   24.267   24.267
 MW, MOL WT        15.291   15.291   15.291
 Cp, KJ/(KG)(K)    2.2691   2.2115   1.9265
 GAMMAs            1.1779   1.1833   1.2163
 SON VEL,M/SEC      679.6    652.4    534.6
 MACH NUMBER        0.000    1.000    2.604

 PERFORMANCE PARAMETERS

 Ae/At                      1.0000   4.0000
 CSTAR, M/SEC                971.2    971.2
 CF                         0.6717   1.4335
 Ivac, M/SEC                1203.6   1561.0
 Isp, M/SEC                  652.4   1392.3

 MASS FRACTIONS

 CH4             0.10646   *CO             0.12146   *CO2            0.05587
 C2H4            0.00001   C2H6            0.00005   HCN             0.00002
 *H2             0.02638   H2O             0.08079   NH3             0.00107
 *N2             0.31735   C(gr)           0.29053

  * THERMODYNAMIC PROPERTIES FITTED TO 20000.K

 NOTE. WEIGHT FRACTION OF FUEL IN TOTAL FUELS AND OF OXIDANT IN TOTAL OXIDANTS

           THEORETICAL ROCKET PERFORMANCE ASSUMING FROZEN COMPOSITION

 Pin =   955.2 PSIA
 CASE = _______________

             REACTANT                    WT FRACTION      ENERGY      TEMP
                                          (SEE NOTE)     KJ/KG-MOL      K  
 FUEL        paraffin                     1.0000000  -1860600.000    298.150
 OXIDANT     N2O                          1.0000000         0.000      0.000

 O/F=    1.00000  %FUEL= 50.000000  R,EQ.RATIO= 9.138527  PHI,EQ.RATIO= 9.138527

                 CHAMBER   THROAT     EXIT
 Pinf/P            1.0000   1.7617   23.012
 P, BAR            65.861   37.386   2.8620
 T, K             1145.50  1050.54   686.60
 RHO, KG/CU M    1.6789 1 1.0392 1 1.2172 0
 H, KJ/KG         -928.66 -1141.49 -1898.20
 U, KJ/KG        -1320.94 -1501.25 -2133.33
 G, KJ/KG        -11050.0 -10423.8 -7964.83
 S, KJ/(KG)(K)     8.8358   8.8358   8.8358

 M, (1/n)          24.279   24.279   24.279
 MW, MOL WT        15.299   15.299   15.299
 Cp, KJ/(KG)(K)    2.2696   2.2120   1.9270
 GAMMAs            1.1777   1.1832   1.2161
 SON VEL,M/SEC      679.7    652.4    534.7
 MACH NUMBER        0.000    1.000    2.604

 PERFORMANCE PARAMETERS

 Ae/At                      1.0000   4.0000
 CSTAR, M/SEC                971.4    971.4
 CF                         0.6716   1.4335
 Ivac, M/SEC                1203.8   1561.4
 Isp, M/SEC                  652.4   1392.5

 MASS FRACTIONS

 CH4             0.10673   *CO             0.12135   *CO2            0.05588
 C2H4            0.00001   C2H6            0.00006   HCN             0.00002
 *H2             0.02630   H2O             0.08086   NH3             0.00108
 *N2             0.31734   C(gr)           0.29036

  * THERMODYNAMIC PROPERTIES FITTED TO 20000.K

 NOTE. WEIGHT FRACTION OF FUEL IN TOTAL FUELS AND OF OXIDANT IN TOTAL OXIDANTS

           THEORETICAL ROCKET PERFORMANCE ASSUMING FROZEN COMPOSITION

 Pin =   969.9 PSIA
 CASE = _______________

             REACTANT                    WT FRACTION      ENERGY      TEMP
                                          (SEE NOTE)     KJ/KG-MOL      K  
 FUEL        paraffin                     1.0000000  -1860600.000    298.150
 OXIDANT     N2O                          1.0000000         0.000      0.000

 O/F=    1.00000  %FUEL= 50.000000  R,EQ.RATIO= 9.138527  PHI,EQ.RATIO= 9.138527

                 CHAMBER   THROAT     EXIT
 Pinf/P            1.0000   1.7616   23.004
 P, BAR            66.874   37.963   2.9070
 T, K             1146.40  1051.44   687.43
 RHO, KG/CU M    1.7043 1 1.0549 1 1.2355 0
 H, KJ/KG         -928.66 -1141.53 -1898.55
 U, KJ/KG        -1321.04 -1501.42 -2133.84
 G, KJ/KG        -11052.0 -10426.3 -7968.95
 S, KJ/(KG)(K)     8.8305   8.8305   8.8305

 M, (1/n)          24.292   24.292   24.292
 MW, MOL WT        15.307   15.307   15.307
 Cp, KJ/(KG)(K)    2.2700   2.2124   1.9274
 GAMMAs            1.1776   1.1830   1.2159
 SON VEL,M/SEC      679.7    652.5    534.9
 MACH NUMBER        0.000    1.000    2.604

 PERFORMANCE PARAMETERS

 Ae/At                      1.0000   4.0000
 CSTAR, M/SEC                971.6    971.6
 CF                         0.6716   1.4335
 Ivac, M/SEC                1204.0   1561.7
 Isp, M/SEC                  652.5   1392.8

 MASS FRACTIONS

 CH4             0.10700   *CO             0.12124   *CO2            0.05588
 C2H4            0.00001   C2H6            0.00006   HCN             0.00002
 *H2             0.02623   H2O             0.08092   NH3             0.00109
 *N2             0.31734   C(gr)           0.29020

  * THERMODYNAMIC PROPERTIES FITTED TO 20000.K

 NOTE. WEIGHT FRACTION OF FUEL IN TOTAL FUELS AND OF OXIDANT IN TOTAL OXIDANTS

           THEORETICAL ROCKET PERFORMANCE ASSUMING FROZEN COMPOSITION

 Pin =   984.6 PSIA
 CASE = _______________

             REACTANT                    WT FRACTION      ENERGY      TEMP
                                          (SEE NOTE)     KJ/KG-MOL      K  
 FUEL        paraffin                     1.0000000  -1860600.000    298.150
 OXIDANT     N2O                          1.0000000         0.000      0.000

 O/F=    1.00000  %FUEL= 50.000000  R,EQ.RATIO= 9.138527  PHI,EQ.RATIO= 9.138527

                 CHAMBER   THROAT     EXIT
 Pinf/P            1.0000   1.7615   22.997
 P, BAR            67.888   38.540   2.9521
 T, K             1147.29  1052.32   688.26
 RHO, KG/CU M    1.7297 1 1.0706 1 1.2538 0
 H, KJ/KG         -928.66 -1141.58 -1898.88
 U, KJ/KG        -1321.15 -1501.58 -2134.34
 G, KJ/KG        -11053.9 -10428.7 -7973.01
 S, KJ/(KG)(K)     8.8254   8.8254   8.8254

 M, (1/n)          24.304   24.304   24.304
 MW, MOL WT        15.315   15.315   15.315
 Cp, KJ/(KG)(K)    2.2705   2.2129   1.9279
 GAMMAs            1.1774   1.1829   1.2157
 SON VEL,M/SEC      679.8    652.6    535.0
 MACH NUMBER        0.000    1.000    2.604

 PERFORMANCE PARAMETERS

 Ae/At                      1.0000   4.0000
 CSTAR, M/SEC                971.8    971.8
 CF                         0.6715   1.4335
 Ivac, M/SEC                1204.2   1562.0
 Isp, M/SEC                  652.6   1393.0

 MASS FRACTIONS

 CH4             0.10727   *CO             0.12114   *CO2            0.05589
 C2H4            0.00001   C2H6            0.00006   HCN             0.00002
 *H2             0.02615   H2O             0.08099   NH3             0.00110
 *N2             0.31733   C(gr)           0.29005

  * THERMODYNAMIC PROPERTIES FITTED TO 20000.K

 NOTE. WEIGHT FRACTION OF FUEL IN TOTAL FUELS AND OF OXIDANT IN TOTAL OXIDANTS

           THEORETICAL ROCKET PERFORMANCE ASSUMING FROZEN COMPOSITION

 Pin =   999.3 PSIA
 CASE = _______________

             REACTANT                    WT FRACTION      ENERGY      TEMP
                                          (SEE NOTE)     KJ/KG-MOL      K  
 FUEL        paraffin                     1.0000000  -1860600.000    298.150
 OXIDANT     N2O                          1.0000000         0.000      0.000

 O/F=    1.00000  %FUEL= 50.000000  R,EQ.RATIO= 9.138527  PHI,EQ.RATIO= 9.138527

                 CHAMBER   THROAT     EXIT
 Pinf/P            1.0000   1.7614   22.989
 P, BAR            68.901   39.118   2.9971
 T, K             1148.16  1053.20   689.07
 RHO, KG/CU M    1.7550 1 1.0862 1 1.2720 0
 H, KJ/KG         -928.66 -1141.62 -1899.22
 U, KJ/KG        -1321.26 -1501.75 -2134.83
 G, KJ/KG        -11055.8 -10431.2 -7977.01
 S, KJ/(KG)(K)     8.8203   8.8203   8.8203

 M, (1/n)          24.316   24.316   24.316
 MW, MOL WT        15.323   15.323   15.323
 Cp, KJ/(KG)(K)    2.2709   2.2133   1.9283
 GAMMAs            1.1773   1.1827   1.2155
 SON VEL,M/SEC      679.8    652.6    535.2
 MACH NUMBER        0.000    1.000    2.603

 PERFORMANCE PARAMETERS

 Ae/At                      1.0000   4.0000
 CSTAR, M/SEC                971.9    971.9
 CF                         0.6715   1.4335
 Ivac, M/SEC                1204.4   1562.4
 Isp, M/SEC                  652.6   1393.2

 MASS FRACTIONS

 CH4             0.10753   *CO             0.12103   *CO2            0.05589
 C2H4            0.00001   C2H6            0.00006   HCN             0.00002
 *H2             0.02608   H2O             0.08105   NH3             0.00110
 *N2             0.31732   C(gr)           0.28989

  * THERMODYNAMIC PROPERTIES FITTED TO 20000.K

 NOTE. WEIGHT FRACTION OF FUEL IN TOTAL FUELS AND OF OXIDANT IN TOTAL OXIDANTS

           THEORETICAL ROCKET PERFORMANCE ASSUMING FROZEN COMPOSITION

 Pin =  1014.0 PSIA
 CASE = _______________

             REACTANT                    WT FRACTION      ENERGY      TEMP
                                          (SEE NOTE)     KJ/KG-MOL      K  
 FUEL        paraffin                     1.0000000  -1860600.000    298.150
 OXIDANT     N2O                          1.0000000         0.000      0.000

 O/F=    1.00000  %FUEL= 50.000000  R,EQ.RATIO= 9.138527  PHI,EQ.RATIO= 9.138527

                 CHAMBER   THROAT     EXIT
 Pinf/P            1.0000   1.7613   22.981
 P, BAR            69.914   39.695   3.0422
 T, K             1149.02  1054.06   689.87
 RHO, KG/CU M    1.7804 1 1.1019 1 1.2903 0
 H, KJ/KG         -928.66 -1141.67 -1899.55
 U, KJ/KG        -1321.36 -1501.91 -2135.32
 G, KJ/KG        -11057.7 -10433.5 -7980.96
 S, KJ/(KG)(K)     8.8153   8.8153   8.8153

 M, (1/n)          24.328   24.328   24.328
 MW, MOL WT        15.331   15.331   15.331
 Cp, KJ/(KG)(K)    2.2713   2.2138   1.9288
 GAMMAs            1.1771   1.1826   1.2154
 SON VEL,M/SEC      679.9    652.7    535.3
 MACH NUMBER        0.000    1.000    2.603

 PERFORMANCE PARAMETERS

 Ae/At                      1.0000   4.0000
 CSTAR, M/SEC                972.1    972.1
 CF                         0.6714   1.4335
 Ivac, M/SEC                1204.6   1562.7
 Isp, M/SEC                  652.7   1393.5

 MASS FRACTIONS

 CH4             0.10779   *CO             0.12093   *CO2            0.05590
 C2H4            0.00001   C2H6            0.00006   HCN             0.00002
 *H2             0.02601   H2O             0.08111   NH3             0.00111
 *N2             0.31732   C(gr)           0.28974

  * THERMODYNAMIC PROPERTIES FITTED TO 20000.K

 NOTE. WEIGHT FRACTION OF FUEL IN TOTAL FUELS AND OF OXIDANT IN TOTAL OXIDANTS

           THEORETICAL ROCKET PERFORMANCE ASSUMING FROZEN COMPOSITION

 Pin =  1028.7 PSIA
 CASE = _______________

             REACTANT                    WT FRACTION      ENERGY      TEMP
                                          (SEE NOTE)     KJ/KG-MOL      K  
 FUEL        paraffin                     1.0000000  -1860600.000    298.150
 OXIDANT     N2O                          1.0000000         0.000      0.000

 O/F=    1.00000  %FUEL= 50.000000  R,EQ.RATIO= 9.138527  PHI,EQ.RATIO= 9.138527

                 CHAMBER   THROAT     EXIT
 Pinf/P            1.0000   1.7612   22.974
 P, BAR            70.927   40.272   3.0873
 T, K             1149.87  1054.91   690.66
 RHO, KG/CU M    1.8057 1 1.1176 1 1.3086 0
 H, KJ/KG         -928.66 -1141.71 -1899.87
 U, KJ/KG        -1321.46 -1502.07 -2135.80
 G, KJ/KG        -11059.5 -10435.9 -7984.85
 S, KJ/(KG)(K)     8.8104   8.8104   8.8104

 M, (1/n)          24.340   24.340   24.340
 MW, MOL WT        15.338   15.338   15.338
 Cp, KJ/(KG)(K)    2.2718   2.2142   1.9292
 GAMMAs            1.1770   1.1824   1.2152
 SON VEL,M/SEC      679.9    652.8    535.4
 MACH NUMBER        0.000    1.000    2.603

 PERFORMANCE PARAMETERS

 Ae/At                      1.0000   4.0000
 CSTAR, M/SEC                972.3    972.3
 CF                         0.6714   1.4335
 Ivac, M/SEC                1204.8   1563.0
 Isp, M/SEC                  652.8   1393.7

 MASS FRACTIONS

 CH4             0.10804   *CO             0.12083   *CO2            0.05591
 C2H4            0.00001   C2H6            0.00006   HCN             0.00002
 *H2             0.02593   H2O             0.08117   NH3             0.00112
 *N2             0.31731   C(gr)           0.28959

  * THERMODYNAMIC PROPERTIES FITTED TO 20000.K

 NOTE. WEIGHT FRACTION OF FUEL IN TOTAL FUELS AND OF OXIDANT IN TOTAL OXIDANTS

           THEORETICAL ROCKET PERFORMANCE ASSUMING FROZEN COMPOSITION

 Pin =  1043.4 PSIA
 CASE = _______________

             REACTANT                    WT FRACTION      ENERGY      TEMP
                                          (SEE NOTE)     KJ/KG-MOL      K  
 FUEL        paraffin                     1.0000000  -1860600.000    298.150
 OXIDANT     N2O                          1.0000000         0.000      0.000

 O/F=    1.00000  %FUEL= 50.000000  R,EQ.RATIO= 9.138527  PHI,EQ.RATIO= 9.138527

                 CHAMBER   THROAT     EXIT
 Pinf/P            1.0000   1.7611   22.967
 P, BAR            71.941   40.850   3.1324
 T, K             1150.71  1055.75   691.44
 RHO, KG/CU M    1.8310 1 1.1332 1 1.3268 0
 H, KJ/KG         -928.66 -1141.75 -1900.19
 U, KJ/KG        -1321.56 -1502.22 -2136.27
 G, KJ/KG        -11061.3 -10438.2 -7988.68
 S, KJ/(KG)(K)     8.8056   8.8056   8.8056

 M, (1/n)          24.351   24.351   24.351
 MW, MOL WT        15.346   15.346   15.346
 Cp, KJ/(KG)(K)    2.2722   2.2146   1.9296
 GAMMAs            1.1768   1.1823   1.2150
 SON VEL,M/SEC      680.0    652.8    535.6
 MACH NUMBER        0.000    1.000    2.603

 PERFORMANCE PARAMETERS

 Ae/At                      1.0000   4.0000
 CSTAR, M/SEC                972.4    972.4
 CF                         0.6713   1.4334
 Ivac, M/SEC                1205.0   1563.3
 Isp, M/SEC                  652.8   1393.9

 MASS FRACTIONS

 CH4             0.10829   *CO             0.12073   *CO2            0.05591
 C2H4            0.00001   C2H6            0.00006   HCN             0.00002
 *H2             0.02586   H2O             0.08123   NH3             0.00113
 *N2             0.31731   C(gr)           0.28945

  * THERMODYNAMIC PROPERTIES FITTED TO 20000.K

 NOTE. WEIGHT FRACTION OF FUEL IN TOTAL FUELS AND OF OXIDANT IN TOTAL OXIDANTS

           THEORETICAL ROCKET PERFORMANCE ASSUMING FROZEN COMPOSITION

 Pin =  1058.1 PSIA
 CASE = _______________

             REACTANT                    WT FRACTION      ENERGY      TEMP
                                          (SEE NOTE)     KJ/KG-MOL      K  
 FUEL        paraffin                     1.0000000  -1860600.000    298.150
 OXIDANT     N2O                          1.0000000         0.000      0.000

 O/F=    1.00000  %FUEL= 50.000000  R,EQ.RATIO= 9.138527  PHI,EQ.RATIO= 9.138527

                 CHAMBER   THROAT     EXIT
 Pinf/P            1.0000   1.7610   22.959
 P, BAR            72.954   41.427   3.1775
 T, K             1151.54  1056.57   692.21
 RHO, KG/CU M    1.8564 1 1.1489 1 1.3451 0
 H, KJ/KG         -928.66 -1141.79 -1900.50
 U, KJ/KG        -1321.66 -1502.38 -2136.73
 G, KJ/KG        -11063.1 -10440.5 -7992.46
 S, KJ/(KG)(K)     8.8008   8.8008   8.8008

 M, (1/n)          24.363   24.363   24.363
 MW, MOL WT        15.353   15.353   15.353
 Cp, KJ/(KG)(K)    2.2726   2.2150   1.9300
 GAMMAs            1.1767   1.1821   1.2148
 SON VEL,M/SEC      680.0    652.9    535.7
 MACH NUMBER        0.000    1.000    2.602

 PERFORMANCE PARAMETERS

 Ae/At                      1.0000   4.0000
 CSTAR, M/SEC                972.6    972.6
 CF                         0.6713   1.4334
 Ivac, M/SEC                1205.2   1563.6
 Isp, M/SEC                  652.9   1394.2

 MASS FRACTIONS

 CH4             0.10854   *CO             0.12063   *CO2            0.05592
 C2H4            0.00001   C2H6            0.00006   HCN             0.00002
 *H2             0.02579   H2O             0.08129   NH3             0.00113
 *N2             0.31730   C(gr)           0.28930

  * THERMODYNAMIC PROPERTIES FITTED TO 20000.K

 NOTE. WEIGHT FRACTION OF FUEL IN TOTAL FUELS AND OF OXIDANT IN TOTAL OXIDANTS