         NASA-GLENN CHEMICAL EQUILIBRIUM PROGRAM CEA2, FEBRUARY 5, 2004
                   BY  BONNIE MCBRIDE AND SANFORD GORDON
      REFS: NASA RP-1311, PART I, 1994 AND NASA RP-1311, PART II, 1996

 *******************************************************************************

  
 ### CEA analysis performed on Tue 12-Oct-2021 14:55:35
  
 # Problem Type: "Rocket" (Infinite Area Combustor)
  
 prob case=_______________1336 ro frozen
  
 # Pressure (24 values):
 p,atm= 25, 26, 27, 28, 29, 30, 31, 32, 33, 34, 35, 36, 37, 38, 39, 40, 41, 42, 4
 3, 44, 45, 46, 47, 48
 # Supersonic Area Ratio (1 value):
 supar= 4
  
 # Oxidizer/Fuel Wt. ratio (31 values):
 o/f= 24.3, 24.5, 24.7, 24.9, 25.1, 25.3, 25.5, 25.7, 25.9, 26.1, 26.3, 26.5, 26.
 7, 26.9, 27.1, 27.3, 27.5, 27.7, 27.9, 28.1, 28.3, 2
  
 # You selected the following fuels and oxidizers:
 reac
 fuel paraffin          wt%=100.0000
 oxid N2O               wt%=100.0000
  
 # You selected these options for output:
 # short version of output
 output short
 # Proportions of any products will be expressed as Mass Fractions.
 output massf
 # Heat will be expressed as siunits
 output siunits
  
 # Input prepared by this script:/var/www/sites/cearun.grc.nasa.gov/cgi-bin/CEARU
 N/prepareInputFile.cgi
  
 ### IMPORTANT:  The following line is the end of your CEA input file!
 end

           THEORETICAL ROCKET PERFORMANCE ASSUMING FROZEN COMPOSITION

 Pin =   367.4 PSIA
 CASE = _______________

             REACTANT                    WT FRACTION      ENERGY      TEMP
                                          (SEE NOTE)     KJ/KG-MOL      K  
 FUEL        paraffin                     1.0000000  -1860600.000    298.150
 OXIDANT     N2O                          1.0000000         0.000      0.000

 O/F=   24.30000  %FUEL=  3.952569  R,EQ.RATIO= 0.376071  PHI,EQ.RATIO= 0.376071

                 CHAMBER   THROAT     EXIT
 Pinf/P            1.0000   1.8208   27.986
 P, BAR            25.331   13.912  0.90514
 T, K             1678.88  1474.25   784.88
 RHO, KG/CU M    5.3440 0 3.3423 0 4.0845-1
 H, KJ/KG         -73.412  -339.85 -1188.45
 U, KJ/KG         -547.43  -756.09 -1410.05
 G, KJ/KG        -13527.8 -12154.4 -7478.44
 S, KJ/(KG)(K)     8.0139   8.0139   8.0139

 M, (1/n)          29.448   29.448   29.448
 Cp, KJ/(KG)(K)    1.3135   1.2898   1.1544
 GAMMAs            1.2738   1.2802   1.3237
 SON VEL,M/SEC      777.0    730.0    541.6
 MACH NUMBER        0.000    1.000    2.757

 PERFORMANCE PARAMETERS

 Ae/At                     1.00000   4.0000
 CSTAR, M/SEC               1038.2   1038.2
 CF                         0.7031   1.4383
 Ivac, M/SEC                1300.2   1641.7
 Isp, M/SEC                  730.0   1493.3

 MASS FRACTIONS

 *CO2            0.12676   H2O             0.04403   *NO             0.00239
 NO2             0.00006   *N2             0.61019   *OH             0.00008
 *O2             0.21649

  * THERMODYNAMIC PROPERTIES FITTED TO 20000.K

 NOTE. WEIGHT FRACTION OF FUEL IN TOTAL FUELS AND OF OXIDANT IN TOTAL OXIDANTS

           THEORETICAL ROCKET PERFORMANCE ASSUMING FROZEN COMPOSITION

 Pin =   382.1 PSIA
 CASE = _______________

             REACTANT                    WT FRACTION      ENERGY      TEMP
                                          (SEE NOTE)     KJ/KG-MOL      K  
 FUEL        paraffin                     1.0000000  -1860600.000    298.150
 OXIDANT     N2O                          1.0000000         0.000      0.000

 O/F=   24.30000  %FUEL=  3.952569  R,EQ.RATIO= 0.376071  PHI,EQ.RATIO= 0.376071

                 CHAMBER   THROAT     EXIT
 Pinf/P            1.0000   1.8208   27.986
 P, BAR            26.345   14.468  0.94134
 T, K             1678.88  1474.26   784.88
 RHO, KG/CU M    5.5577 0 3.4760 0 4.2479-1
 H, KJ/KG         -73.412  -339.85 -1188.45
 U, KJ/KG         -547.43  -756.09 -1410.05
 G, KJ/KG        -13509.3 -12138.2 -7469.78
 S, KJ/(KG)(K)     8.0029   8.0029   8.0029

 M, (1/n)          29.448   29.448   29.448
 Cp, KJ/(KG)(K)    1.3135   1.2898   1.1544
 GAMMAs            1.2738   1.2802   1.3237
 SON VEL,M/SEC      777.0    730.0    541.6
 MACH NUMBER        0.000    1.000    2.757

 PERFORMANCE PARAMETERS

 Ae/At                     1.00000   4.0000
 CSTAR, M/SEC               1038.2   1038.2
 CF                         0.7031   1.4383
 Ivac, M/SEC                1300.2   1641.7
 Isp, M/SEC                  730.0   1493.3

 MASS FRACTIONS

 *CO2            0.12676   H2O             0.04403   *NO             0.00239
 NO2             0.00006   *N2             0.61019   *OH             0.00008
 *O2             0.21649

  * THERMODYNAMIC PROPERTIES FITTED TO 20000.K

 NOTE. WEIGHT FRACTION OF FUEL IN TOTAL FUELS AND OF OXIDANT IN TOTAL OXIDANTS

           THEORETICAL ROCKET PERFORMANCE ASSUMING FROZEN COMPOSITION

 Pin =   396.8 PSIA
 CASE = _______________

             REACTANT                    WT FRACTION      ENERGY      TEMP
                                          (SEE NOTE)     KJ/KG-MOL      K  
 FUEL        paraffin                     1.0000000  -1860600.000    298.150
 OXIDANT     N2O                          1.0000000         0.000      0.000

 O/F=   24.30000  %FUEL=  3.952569  R,EQ.RATIO= 0.376071  PHI,EQ.RATIO= 0.376071

                 CHAMBER   THROAT     EXIT
 Pinf/P            1.0000   1.8208   27.986
 P, BAR            27.358   15.025  0.97755
 T, K             1678.89  1474.26   784.89
 RHO, KG/CU M    5.7715 0 3.6096 0 4.4112-1
 H, KJ/KG         -73.412  -339.85 -1188.45
 U, KJ/KG         -547.43  -756.10 -1410.06
 G, KJ/KG        -13491.5 -12122.5 -7461.44
 S, KJ/(KG)(K)     7.9922   7.9922   7.9922

 M, (1/n)          29.449   29.449   29.449
 Cp, KJ/(KG)(K)    1.3135   1.2898   1.1545
 GAMMAs            1.2738   1.2802   1.3237
 SON VEL,M/SEC      777.0    730.0    541.6
 MACH NUMBER        0.000    1.000    2.757

 PERFORMANCE PARAMETERS

 Ae/At                      1.0000   4.0000
 CSTAR, M/SEC               1038.2   1038.2
 CF                         0.7031   1.4383
 Ivac, M/SEC                1300.2   1641.7
 Isp, M/SEC                  730.0   1493.3

 MASS FRACTIONS

 *CO2            0.12676   H2O             0.04403   *NO             0.00239
 NO2             0.00006   *N2             0.61019   *OH             0.00008
 *O2             0.21649

  * THERMODYNAMIC PROPERTIES FITTED TO 20000.K

 NOTE. WEIGHT FRACTION OF FUEL IN TOTAL FUELS AND OF OXIDANT IN TOTAL OXIDANTS

           THEORETICAL ROCKET PERFORMANCE ASSUMING FROZEN COMPOSITION

 Pin =   411.5 PSIA
 CASE = _______________

             REACTANT                    WT FRACTION      ENERGY      TEMP
                                          (SEE NOTE)     KJ/KG-MOL      K  
 FUEL        paraffin                     1.0000000  -1860600.000    298.150
 OXIDANT     N2O                          1.0000000         0.000      0.000

 O/F=   24.30000  %FUEL=  3.952569  R,EQ.RATIO= 0.376071  PHI,EQ.RATIO= 0.376071

                 CHAMBER   THROAT     EXIT
 Pinf/P            1.0000   1.8208   27.986
 P, BAR            28.371   15.581   1.0138
 T, K             1678.89  1474.27   784.89
 RHO, KG/CU M    5.9852 0 3.7433 0 4.5746-1
 H, KJ/KG         -73.412  -339.85 -1188.45
 U, KJ/KG         -547.43  -756.10 -1410.06
 G, KJ/KG        -13474.3 -12107.4 -7453.41
 S, KJ/(KG)(K)     7.9819   7.9819   7.9819

 M, (1/n)          29.449   29.449   29.449
 Cp, KJ/(KG)(K)    1.3135   1.2898   1.1545
 GAMMAs            1.2738   1.2802   1.3237
 SON VEL,M/SEC      777.0    730.0    541.6
 MACH NUMBER        0.000    1.000    2.757

 PERFORMANCE PARAMETERS

 Ae/At                      1.0000   4.0000
 CSTAR, M/SEC               1038.3   1038.3
 CF                         0.7031   1.4383
 Ivac, M/SEC                1300.2   1641.7
 Isp, M/SEC                  730.0   1493.3

 MASS FRACTIONS

 *CO2            0.12676   H2O             0.04403   *NO             0.00239
 NO2             0.00006   *N2             0.61019   *OH             0.00008
 *O2             0.21648

  * THERMODYNAMIC PROPERTIES FITTED TO 20000.K

 NOTE. WEIGHT FRACTION OF FUEL IN TOTAL FUELS AND OF OXIDANT IN TOTAL OXIDANTS

           THEORETICAL ROCKET PERFORMANCE ASSUMING FROZEN COMPOSITION

 Pin =   426.2 PSIA
 CASE = _______________

             REACTANT                    WT FRACTION      ENERGY      TEMP
                                          (SEE NOTE)     KJ/KG-MOL      K  
 FUEL        paraffin                     1.0000000  -1860600.000    298.150
 OXIDANT     N2O                          1.0000000         0.000      0.000

 O/F=   24.30000  %FUEL=  3.952569  R,EQ.RATIO= 0.376071  PHI,EQ.RATIO= 0.376071

                 CHAMBER   THROAT     EXIT
 Pinf/P            1.0000   1.8208   27.986
 P, BAR            29.384   16.138   1.0500
 T, K             1678.90  1474.27   784.89
 RHO, KG/CU M    6.1989 0 3.8770 0 4.7380-1
 H, KJ/KG         -73.412  -339.85 -1188.46
 U, KJ/KG         -547.43  -756.10 -1410.06
 G, KJ/KG        -13457.7 -12092.8 -7445.66
 S, KJ/(KG)(K)     7.9720   7.9720   7.9720

 M, (1/n)          29.449   29.449   29.449
 Cp, KJ/(KG)(K)    1.3135   1.2898   1.1545
 GAMMAs            1.2738   1.2802   1.3237
 SON VEL,M/SEC      777.0    730.0    541.6
 MACH NUMBER        0.000    1.000    2.757

 PERFORMANCE PARAMETERS

 Ae/At                     1.00000   4.0000
 CSTAR, M/SEC               1038.3   1038.3
 CF                         0.7031   1.4383
 Ivac, M/SEC                1300.2   1641.7
 Isp, M/SEC                  730.0   1493.3

 MASS FRACTIONS

 *CO2            0.12676   H2O             0.04403   *NO             0.00239
 NO2             0.00006   *N2             0.61019   *OH             0.00008
 *O2             0.21648

  * THERMODYNAMIC PROPERTIES FITTED TO 20000.K

 NOTE. WEIGHT FRACTION OF FUEL IN TOTAL FUELS AND OF OXIDANT IN TOTAL OXIDANTS

           THEORETICAL ROCKET PERFORMANCE ASSUMING FROZEN COMPOSITION

 Pin =   440.9 PSIA
 CASE = _______________

             REACTANT                    WT FRACTION      ENERGY      TEMP
                                          (SEE NOTE)     KJ/KG-MOL      K  
 FUEL        paraffin                     1.0000000  -1860600.000    298.150
 OXIDANT     N2O                          1.0000000         0.000      0.000

 O/F=   24.30000  %FUEL=  3.952569  R,EQ.RATIO= 0.376071  PHI,EQ.RATIO= 0.376071

                 CHAMBER   THROAT     EXIT
 Pinf/P            1.0000   1.8208   27.986
 P, BAR            30.398   16.694   1.0862
 T, K             1678.90  1474.28   784.90
 RHO, KG/CU M    6.4127 0 4.0107 0 4.9013-1
 H, KJ/KG         -73.412  -339.85 -1188.46
 U, KJ/KG         -547.43  -756.10 -1410.07
 G, KJ/KG        -13441.6 -12078.7 -7438.18
 S, KJ/(KG)(K)     7.9625   7.9625   7.9625

 M, (1/n)          29.449   29.449   29.449
 Cp, KJ/(KG)(K)    1.3135   1.2898   1.1545
 GAMMAs            1.2738   1.2802   1.3237
 SON VEL,M/SEC      777.1    730.0    541.6
 MACH NUMBER        0.000    1.000    2.757

 PERFORMANCE PARAMETERS

 Ae/At                      1.0000   4.0000
 CSTAR, M/SEC               1038.3   1038.3
 CF                         0.7031   1.4383
 Ivac, M/SEC                1300.2   1641.7
 Isp, M/SEC                  730.0   1493.3

 MASS FRACTIONS

 *CO2            0.12676   H2O             0.04403   *NO             0.00239
 NO2             0.00007   *N2             0.61019   *OH             0.00008
 *O2             0.21648

  * THERMODYNAMIC PROPERTIES FITTED TO 20000.K

 NOTE. WEIGHT FRACTION OF FUEL IN TOTAL FUELS AND OF OXIDANT IN TOTAL OXIDANTS

           THEORETICAL ROCKET PERFORMANCE ASSUMING FROZEN COMPOSITION

 Pin =   455.6 PSIA
 CASE = _______________

             REACTANT                    WT FRACTION      ENERGY      TEMP
                                          (SEE NOTE)     KJ/KG-MOL      K  
 FUEL        paraffin                     1.0000000  -1860600.000    298.150
 OXIDANT     N2O                          1.0000000         0.000      0.000

 O/F=   24.30000  %FUEL=  3.952569  R,EQ.RATIO= 0.376071  PHI,EQ.RATIO= 0.376071

                 CHAMBER   THROAT     EXIT
 Pinf/P            1.0000   1.8208   27.986
 P, BAR            31.411   17.251   1.1224
 T, K             1678.91  1474.28   784.90
 RHO, KG/CU M    6.6264 0 4.1444 0 5.0647-1
 H, KJ/KG         -73.412  -339.85 -1188.46
 U, KJ/KG         -547.43  -756.10 -1410.07
 G, KJ/KG        -13426.1 -12065.1 -7430.94
 S, KJ/(KG)(K)     7.9532   7.9532   7.9532

 M, (1/n)          29.449   29.449   29.449
 Cp, KJ/(KG)(K)    1.3135   1.2898   1.1545
 GAMMAs            1.2738   1.2802   1.3237
 SON VEL,M/SEC      777.1    730.0    541.6
 MACH NUMBER        0.000    1.000    2.757

 PERFORMANCE PARAMETERS

 Ae/At                      1.0000   4.0000
 CSTAR, M/SEC               1038.3   1038.3
 CF                         0.7031   1.4383
 Ivac, M/SEC                1300.2   1641.7
 Isp, M/SEC                  730.0   1493.4

 MASS FRACTIONS

 *CO2            0.12676   H2O             0.04403   *NO             0.00239
 NO2             0.00007   *N2             0.61019   *OH             0.00007
 *O2             0.21648

  * THERMODYNAMIC PROPERTIES FITTED TO 20000.K

 NOTE. WEIGHT FRACTION OF FUEL IN TOTAL FUELS AND OF OXIDANT IN TOTAL OXIDANTS

           THEORETICAL ROCKET PERFORMANCE ASSUMING FROZEN COMPOSITION

 Pin =   470.3 PSIA
 CASE = _______________

             REACTANT                    WT FRACTION      ENERGY      TEMP
                                          (SEE NOTE)     KJ/KG-MOL      K  
 FUEL        paraffin                     1.0000000  -1860600.000    298.150
 OXIDANT     N2O                          1.0000000         0.000      0.000

 O/F=   24.30000  %FUEL=  3.952569  R,EQ.RATIO= 0.376071  PHI,EQ.RATIO= 0.376071

                 CHAMBER   THROAT     EXIT
 Pinf/P            1.0000   1.8208   27.986
 P, BAR            32.424   17.807   1.1586
 T, K             1678.91  1474.28   784.90
 RHO, KG/CU M    6.8402 0 4.2781 0 5.2281-1
 H, KJ/KG         -73.412  -339.85 -1188.46
 U, KJ/KG         -547.43  -756.10 -1410.07
 G, KJ/KG        -13411.1 -12051.9 -7423.92
 S, KJ/(KG)(K)     7.9442   7.9442   7.9442

 M, (1/n)          29.449   29.449   29.449
 Cp, KJ/(KG)(K)    1.3135   1.2898   1.1545
 GAMMAs            1.2738   1.2802   1.3237
 SON VEL,M/SEC      777.1    730.0    541.6
 MACH NUMBER        0.000    1.000    2.757

 PERFORMANCE PARAMETERS

 Ae/At                      1.0000   4.0000
 CSTAR, M/SEC               1038.3   1038.3
 CF                         0.7031   1.4383
 Ivac, M/SEC                1300.2   1641.7
 Isp, M/SEC                  730.0   1493.4

 MASS FRACTIONS

 *CO2            0.12676   H2O             0.04403   *NO             0.00239
 NO2             0.00007   *N2             0.61019   *OH             0.00007
 *O2             0.21648

  * THERMODYNAMIC PROPERTIES FITTED TO 20000.K

 NOTE. WEIGHT FRACTION OF FUEL IN TOTAL FUELS AND OF OXIDANT IN TOTAL OXIDANTS

           THEORETICAL ROCKET PERFORMANCE ASSUMING FROZEN COMPOSITION

 Pin =   485.0 PSIA
 CASE = _______________

             REACTANT                    WT FRACTION      ENERGY      TEMP
                                          (SEE NOTE)     KJ/KG-MOL      K  
 FUEL        paraffin                     1.0000000  -1860600.000    298.150
 OXIDANT     N2O                          1.0000000         0.000      0.000

 O/F=   24.30000  %FUEL=  3.952569  R,EQ.RATIO= 0.376071  PHI,EQ.RATIO= 0.376071

                 CHAMBER   THROAT     EXIT
 Pinf/P            1.0000   1.8208   27.986
 P, BAR            33.437   18.364   1.1948
 T, K             1678.91  1474.29   784.91
 RHO, KG/CU M    7.0539 0 4.4117 0 5.3914-1
 H, KJ/KG         -73.412  -339.85 -1188.46
 U, KJ/KG         -547.44  -756.10 -1410.07
 G, KJ/KG        -13396.5 -12039.2 -7417.13
 S, KJ/(KG)(K)     7.9356   7.9356   7.9356

 M, (1/n)          29.449   29.449   29.449
 Cp, KJ/(KG)(K)    1.3135   1.2898   1.1545
 GAMMAs            1.2738   1.2802   1.3237
 SON VEL,M/SEC      777.1    730.0    541.6
 MACH NUMBER        0.000    1.000    2.757

 PERFORMANCE PARAMETERS

 Ae/At                      1.0000   4.0000
 CSTAR, M/SEC               1038.3   1038.3
 CF                         0.7031   1.4383
 Ivac, M/SEC                1300.2   1641.8
 Isp, M/SEC                  730.0   1493.4

 MASS FRACTIONS

 *CO2            0.12676   H2O             0.04403   *NO             0.00239
 NO2             0.00007   *N2             0.61019   *OH             0.00007
 *O2             0.21648

  * THERMODYNAMIC PROPERTIES FITTED TO 20000.K

 NOTE. WEIGHT FRACTION OF FUEL IN TOTAL FUELS AND OF OXIDANT IN TOTAL OXIDANTS

           THEORETICAL ROCKET PERFORMANCE ASSUMING FROZEN COMPOSITION

 Pin =   499.7 PSIA
 CASE = _______________

             REACTANT                    WT FRACTION      ENERGY      TEMP
                                          (SEE NOTE)     KJ/KG-MOL      K  
 FUEL        paraffin                     1.0000000  -1860600.000    298.150
 OXIDANT     N2O                          1.0000000         0.000      0.000

 O/F=   24.30000  %FUEL=  3.952569  R,EQ.RATIO= 0.376071  PHI,EQ.RATIO= 0.376071

                 CHAMBER   THROAT     EXIT
 Pinf/P            1.0000   1.8208   27.986
 P, BAR            34.450   18.920   1.2310
 T, K             1678.92  1474.29   784.91
 RHO, KG/CU M    7.2677 0 4.5454 0 5.5548-1
 H, KJ/KG         -73.412  -339.85 -1188.47
 U, KJ/KG         -547.44  -756.10 -1410.08
 G, KJ/KG        -13382.4 -12026.8 -7410.53
 S, KJ/(KG)(K)     7.9271   7.9271   7.9271

 M, (1/n)          29.449   29.449   29.449
 Cp, KJ/(KG)(K)    1.3135   1.2898   1.1545
 GAMMAs            1.2738   1.2802   1.3237
 SON VEL,M/SEC      777.1    730.0    541.6
 MACH NUMBER        0.000    1.000    2.757

 PERFORMANCE PARAMETERS

 Ae/At                      1.0000   4.0000
 CSTAR, M/SEC               1038.3   1038.3
 CF                         0.7031   1.4383
 Ivac, M/SEC                1300.2   1641.8
 Isp, M/SEC                  730.0   1493.4

 MASS FRACTIONS

 *CO2            0.12676   H2O             0.04403   *NO             0.00239
 NO2             0.00007   *N2             0.61019   *OH             0.00007
 *O2             0.21648

  * THERMODYNAMIC PROPERTIES FITTED TO 20000.K

 NOTE. WEIGHT FRACTION OF FUEL IN TOTAL FUELS AND OF OXIDANT IN TOTAL OXIDANTS

           THEORETICAL ROCKET PERFORMANCE ASSUMING FROZEN COMPOSITION

 Pin =   514.4 PSIA
 CASE = _______________

             REACTANT                    WT FRACTION      ENERGY      TEMP
                                          (SEE NOTE)     KJ/KG-MOL      K  
 FUEL        paraffin                     1.0000000  -1860600.000    298.150
 OXIDANT     N2O                          1.0000000         0.000      0.000

 O/F=   24.30000  %FUEL=  3.952569  R,EQ.RATIO= 0.376071  PHI,EQ.RATIO= 0.376071

                 CHAMBER   THROAT     EXIT
 Pinf/P            1.0000   1.8208   27.986
 P, BAR            35.464   19.477   1.2672
 T, K             1678.92  1474.30   784.91
 RHO, KG/CU M    7.4814 0 4.6791 0 5.7182-1
 H, KJ/KG         -73.412  -339.85 -1188.47
 U, KJ/KG         -547.44  -756.11 -1410.08
 G, KJ/KG        -13368.7 -12014.7 -7404.13
 S, KJ/(KG)(K)     7.9189   7.9189   7.9189

 M, (1/n)          29.449   29.449   29.449
 Cp, KJ/(KG)(K)    1.3135   1.2898   1.1545
 GAMMAs            1.2738   1.2802   1.3237
 SON VEL,M/SEC      777.1    730.0    541.6
 MACH NUMBER        0.000    1.000    2.757

 PERFORMANCE PARAMETERS

 Ae/At                      1.0000   4.0000
 CSTAR, M/SEC               1038.3   1038.3
 CF                         0.7031   1.4383
 Ivac, M/SEC                1300.2   1641.8
 Isp, M/SEC                  730.0   1493.4

 MASS FRACTIONS

 *CO2            0.12676   H2O             0.04403   *NO             0.00239
 NO2             0.00007   *N2             0.61019   *OH             0.00007
 *O2             0.21648

  * THERMODYNAMIC PROPERTIES FITTED TO 20000.K

 NOTE. WEIGHT FRACTION OF FUEL IN TOTAL FUELS AND OF OXIDANT IN TOTAL OXIDANTS

           THEORETICAL ROCKET PERFORMANCE ASSUMING FROZEN COMPOSITION

 Pin =   529.1 PSIA
 CASE = _______________

             REACTANT                    WT FRACTION      ENERGY      TEMP
                                          (SEE NOTE)     KJ/KG-MOL      K  
 FUEL        paraffin                     1.0000000  -1860600.000    298.150
 OXIDANT     N2O                          1.0000000         0.000      0.000

 O/F=   24.30000  %FUEL=  3.952569  R,EQ.RATIO= 0.376071  PHI,EQ.RATIO= 0.376071

                 CHAMBER   THROAT     EXIT
 Pinf/P            1.0000   1.8208   27.986
 P, BAR            36.477   20.033   1.3034
 T, K             1678.92  1474.30   784.91
 RHO, KG/CU M    7.6952 0 4.8128 0 5.8815-1
 H, KJ/KG         -73.412  -339.86 -1188.47
 U, KJ/KG         -547.44  -756.11 -1410.08
 G, KJ/KG        -13355.4 -12003.0 -7397.91
 S, KJ/(KG)(K)     7.9110   7.9110   7.9110

 M, (1/n)          29.449   29.449   29.449
 Cp, KJ/(KG)(K)    1.3135   1.2898   1.1545
 GAMMAs            1.2738   1.2802   1.3237
 SON VEL,M/SEC      777.1    730.0    541.6
 MACH NUMBER        0.000    1.000    2.757

 PERFORMANCE PARAMETERS

 Ae/At                      1.0000   4.0000
 CSTAR, M/SEC               1038.3   1038.3
 CF                         0.7031   1.4383
 Ivac, M/SEC                1300.2   1641.8
 Isp, M/SEC                  730.0   1493.4

 MASS FRACTIONS

 *CO2            0.12676   H2O             0.04403   *NO             0.00239
 NO2             0.00007   *N2             0.61018   *OH             0.00007
 *O2             0.21648

  * THERMODYNAMIC PROPERTIES FITTED TO 20000.K

 NOTE. WEIGHT FRACTION OF FUEL IN TOTAL FUELS AND OF OXIDANT IN TOTAL OXIDANTS

           THEORETICAL ROCKET PERFORMANCE ASSUMING FROZEN COMPOSITION

 Pin =   543.8 PSIA
 CASE = _______________

             REACTANT                    WT FRACTION      ENERGY      TEMP
                                          (SEE NOTE)     KJ/KG-MOL      K  
 FUEL        paraffin                     1.0000000  -1860600.000    298.150
 OXIDANT     N2O                          1.0000000         0.000      0.000

 O/F=   24.30000  %FUEL=  3.952569  R,EQ.RATIO= 0.376071  PHI,EQ.RATIO= 0.376071

                 CHAMBER   THROAT     EXIT
 Pinf/P            1.0000   1.8208   27.986
 P, BAR            37.490   20.590   1.3396
 T, K             1678.93  1474.30   784.91
 RHO, KG/CU M    7.9089 0 4.9465 0 6.0449-1
 H, KJ/KG         -73.412  -339.86 -1188.47
 U, KJ/KG         -547.44  -756.11 -1410.08
 G, KJ/KG        -13342.4 -11991.6 -7391.86
 S, KJ/(KG)(K)     7.9033   7.9033   7.9033

 M, (1/n)          29.449   29.449   29.449
 Cp, KJ/(KG)(K)    1.3135   1.2898   1.1545
 GAMMAs            1.2738   1.2802   1.3237
 SON VEL,M/SEC      777.1    730.0    541.6
 MACH NUMBER        0.000    1.000    2.757

 PERFORMANCE PARAMETERS

 Ae/At                      1.0000   4.0000
 CSTAR, M/SEC               1038.3   1038.3
 CF                         0.7031   1.4383
 Ivac, M/SEC                1300.2   1641.8
 Isp, M/SEC                  730.0   1493.4

 MASS FRACTIONS

 *CO2            0.12676   H2O             0.04403   *NO             0.00239
 NO2             0.00007   *N2             0.61018   *OH             0.00007
 *O2             0.21648

  * THERMODYNAMIC PROPERTIES FITTED TO 20000.K

 NOTE. WEIGHT FRACTION OF FUEL IN TOTAL FUELS AND OF OXIDANT IN TOTAL OXIDANTS

           THEORETICAL ROCKET PERFORMANCE ASSUMING FROZEN COMPOSITION

 Pin =   558.4 PSIA
 CASE = _______________

             REACTANT                    WT FRACTION      ENERGY      TEMP
                                          (SEE NOTE)     KJ/KG-MOL      K  
 FUEL        paraffin                     1.0000000  -1860600.000    298.150
 OXIDANT     N2O                          1.0000000         0.000      0.000

 O/F=   24.30000  %FUEL=  3.952569  R,EQ.RATIO= 0.376071  PHI,EQ.RATIO= 0.376071

                 CHAMBER   THROAT     EXIT
 Pinf/P            1.0000   1.8208   27.986
 P, BAR            38.504   21.146   1.3758
 T, K             1678.93  1474.30   784.92
 RHO, KG/CU M    8.1226 0 5.0801 0 6.2083-1
 H, KJ/KG         -73.412  -339.86 -1188.47
 U, KJ/KG         -547.44  -756.11 -1410.09
 G, KJ/KG        -13329.8 -11980.6 -7385.96
 S, KJ/(KG)(K)     7.8957   7.8957   7.8957

 M, (1/n)          29.449   29.449   29.449
 Cp, KJ/(KG)(K)    1.3135   1.2898   1.1545
 GAMMAs            1.2738   1.2802   1.3237
 SON VEL,M/SEC      777.1    730.0    541.6
 MACH NUMBER        0.000    1.000    2.757

 PERFORMANCE PARAMETERS

 Ae/At                      1.0000   4.0000
 CSTAR, M/SEC               1038.3   1038.3
 CF                         0.7031   1.4383
 Ivac, M/SEC                1300.2   1641.8
 Isp, M/SEC                  730.0   1493.4

 MASS FRACTIONS

 *CO2            0.12676   H2O             0.04403   *NO             0.00239
 NO2             0.00007   *N2             0.61018   *OH             0.00007
 *O2             0.21648

  * THERMODYNAMIC PROPERTIES FITTED TO 20000.K

 NOTE. WEIGHT FRACTION OF FUEL IN TOTAL FUELS AND OF OXIDANT IN TOTAL OXIDANTS

           THEORETICAL ROCKET PERFORMANCE ASSUMING FROZEN COMPOSITION

 Pin =   573.1 PSIA
 CASE = _______________

             REACTANT                    WT FRACTION      ENERGY      TEMP
                                          (SEE NOTE)     KJ/KG-MOL      K  
 FUEL        paraffin                     1.0000000  -1860600.000    298.150
 OXIDANT     N2O                          1.0000000         0.000      0.000

 O/F=   24.30000  %FUEL=  3.952569  R,EQ.RATIO= 0.376071  PHI,EQ.RATIO= 0.376071

                 CHAMBER   THROAT     EXIT
 Pinf/P            1.0000   1.8208   27.986
 P, BAR            39.517   21.703   1.4120
 T, K             1678.93  1474.31   784.92
 RHO, KG/CU M    8.3364 0 5.2138 0 6.3716-1
 H, KJ/KG         -73.412  -339.86 -1188.48
 U, KJ/KG         -547.44  -756.11 -1410.09
 G, KJ/KG        -13317.5 -11969.8 -7380.23
 S, KJ/(KG)(K)     7.8884   7.8884   7.8884

 M, (1/n)          29.449   29.449   29.449
 Cp, KJ/(KG)(K)    1.3135   1.2898   1.1545
 GAMMAs            1.2738   1.2802   1.3237
 SON VEL,M/SEC      777.1    730.0    541.6
 MACH NUMBER        0.000    1.000    2.757

 PERFORMANCE PARAMETERS

 Ae/At                      1.0000   4.0000
 CSTAR, M/SEC               1038.3   1038.3
 CF                         0.7031   1.4383
 Ivac, M/SEC                1300.2   1641.8
 Isp, M/SEC                  730.0   1493.4

 MASS FRACTIONS

 *CO2            0.12676   H2O             0.04403   *NO             0.00239
 NO2             0.00007   *N2             0.61018   *OH             0.00007
 *O2             0.21648

  * THERMODYNAMIC PROPERTIES FITTED TO 20000.K

 NOTE. WEIGHT FRACTION OF FUEL IN TOTAL FUELS AND OF OXIDANT IN TOTAL OXIDANTS

           THEORETICAL ROCKET PERFORMANCE ASSUMING FROZEN COMPOSITION

 Pin =   587.8 PSIA
 CASE = _______________

             REACTANT                    WT FRACTION      ENERGY      TEMP
                                          (SEE NOTE)     KJ/KG-MOL      K  
 FUEL        paraffin                     1.0000000  -1860600.000    298.150
 OXIDANT     N2O                          1.0000000         0.000      0.000

 O/F=   24.30000  %FUEL=  3.952569  R,EQ.RATIO= 0.376071  PHI,EQ.RATIO= 0.376071

                 CHAMBER   THROAT     EXIT
 Pinf/P            1.0000   1.8208   27.986
 P, BAR            40.530   22.259   1.4482
 T, K             1678.94  1474.31   784.92
 RHO, KG/CU M    8.5501 0 5.3475 0 6.5350-1
 H, KJ/KG         -73.412  -339.86 -1188.48
 U, KJ/KG         -547.44  -756.11 -1410.09
 G, KJ/KG        -13305.5 -11959.3 -7374.63
 S, KJ/(KG)(K)     7.8812   7.8812   7.8812

 M, (1/n)          29.449   29.449   29.449
 Cp, KJ/(KG)(K)    1.3135   1.2898   1.1545
 GAMMAs            1.2738   1.2802   1.3237
 SON VEL,M/SEC      777.1    730.0    541.6
 MACH NUMBER        0.000    1.000    2.757

 PERFORMANCE PARAMETERS

 Ae/At                      1.0000   4.0000
 CSTAR, M/SEC               1038.3   1038.3
 CF                         0.7031   1.4383
 Ivac, M/SEC                1300.2   1641.8
 Isp, M/SEC                  730.0   1493.4

 MASS FRACTIONS

 *CO2            0.12676   H2O             0.04403   *NO             0.00239
 NO2             0.00008   *N2             0.61018   *OH             0.00007
 *O2             0.21648

  * THERMODYNAMIC PROPERTIES FITTED TO 20000.K

 NOTE. WEIGHT FRACTION OF FUEL IN TOTAL FUELS AND OF OXIDANT IN TOTAL OXIDANTS

           THEORETICAL ROCKET PERFORMANCE ASSUMING FROZEN COMPOSITION

 Pin =   602.5 PSIA
 CASE = _______________

             REACTANT                    WT FRACTION      ENERGY      TEMP
                                          (SEE NOTE)     KJ/KG-MOL      K  
 FUEL        paraffin                     1.0000000  -1860600.000    298.150
 OXIDANT     N2O                          1.0000000         0.000      0.000

 O/F=   24.30000  %FUEL=  3.952569  R,EQ.RATIO= 0.376071  PHI,EQ.RATIO= 0.376071

                 CHAMBER   THROAT     EXIT
 Pinf/P            1.0000   1.8208   27.986
 P, BAR            41.543   22.816   1.4844
 T, K             1678.94  1474.31   784.92
 RHO, KG/CU M    8.7639 0 5.4812 0 6.6984-1
 H, KJ/KG         -73.412  -339.86 -1188.48
 U, KJ/KG         -547.44  -756.11 -1410.09
 G, KJ/KG        -13293.8 -11949.0 -7369.18
 S, KJ/(KG)(K)     7.8743   7.8743   7.8743

 M, (1/n)          29.449   29.449   29.449
 Cp, KJ/(KG)(K)    1.3135   1.2898   1.1545
 GAMMAs            1.2738   1.2802   1.3237
 SON VEL,M/SEC      777.1    730.0    541.6
 MACH NUMBER        0.000    1.000    2.757

 PERFORMANCE PARAMETERS

 Ae/At                      1.0000   4.0000
 CSTAR, M/SEC               1038.3   1038.3
 CF                         0.7031   1.4383
 Ivac, M/SEC                1300.2   1641.8
 Isp, M/SEC                  730.0   1493.4

 MASS FRACTIONS

 *CO2            0.12676   H2O             0.04403   *NO             0.00239
 NO2             0.00008   *N2             0.61018   *OH             0.00007
 *O2             0.21648

  * THERMODYNAMIC PROPERTIES FITTED TO 20000.K

 NOTE. WEIGHT FRACTION OF FUEL IN TOTAL FUELS AND OF OXIDANT IN TOTAL OXIDANTS

           THEORETICAL ROCKET PERFORMANCE ASSUMING FROZEN COMPOSITION

 Pin =   617.2 PSIA
 CASE = _______________

             REACTANT                    WT FRACTION      ENERGY      TEMP
                                          (SEE NOTE)     KJ/KG-MOL      K  
 FUEL        paraffin                     1.0000000  -1860600.000    298.150
 OXIDANT     N2O                          1.0000000         0.000      0.000

 O/F=   24.30000  %FUEL=  3.952569  R,EQ.RATIO= 0.376071  PHI,EQ.RATIO= 0.376071

                 CHAMBER   THROAT     EXIT
 Pinf/P            1.0000   1.8208   27.986
 P, BAR            42.556   23.372   1.5207
 T, K             1678.94  1474.31   784.93
 RHO, KG/CU M    8.9776 0 5.6149 0 6.8617-1
 H, KJ/KG         -73.412  -339.86 -1188.48
 U, KJ/KG         -547.44  -756.11 -1410.09
 G, KJ/KG        -13282.4 -11939.0 -7363.85
 S, KJ/(KG)(K)     7.8675   7.8675   7.8675

 M, (1/n)          29.449   29.449   29.449
 Cp, KJ/(KG)(K)    1.3135   1.2898   1.1545
 GAMMAs            1.2738   1.2802   1.3237
 SON VEL,M/SEC      777.1    730.0    541.6
 MACH NUMBER        0.000    1.000    2.757

 PERFORMANCE PARAMETERS

 Ae/At                      1.0000   4.0000
 CSTAR, M/SEC               1038.3   1038.3
 CF                         0.7031   1.4383
 Ivac, M/SEC                1300.2   1641.8
 Isp, M/SEC                  730.0   1493.4

 MASS FRACTIONS

 *CO2            0.12676   H2O             0.04403   *NO             0.00239
 NO2             0.00008   *N2             0.61018   *OH             0.00007
 *O2             0.21648

  * THERMODYNAMIC PROPERTIES FITTED TO 20000.K

 NOTE. WEIGHT FRACTION OF FUEL IN TOTAL FUELS AND OF OXIDANT IN TOTAL OXIDANTS

           THEORETICAL ROCKET PERFORMANCE ASSUMING FROZEN COMPOSITION

 Pin =   631.9 PSIA
 CASE = _______________

             REACTANT                    WT FRACTION      ENERGY      TEMP
                                          (SEE NOTE)     KJ/KG-MOL      K  
 FUEL        paraffin                     1.0000000  -1860600.000    298.150
 OXIDANT     N2O                          1.0000000         0.000      0.000

 O/F=   24.30000  %FUEL=  3.952569  R,EQ.RATIO= 0.376071  PHI,EQ.RATIO= 0.376071

                 CHAMBER   THROAT     EXIT
 Pinf/P            1.0000   1.8208   27.986
 P, BAR            43.570   23.929   1.5569
 T, K             1678.95  1474.32   784.93
 RHO, KG/CU M    9.1914 0 5.7486 0 7.0251-1
 H, KJ/KG         -73.412  -339.86 -1188.48
 U, KJ/KG         -547.44  -756.11 -1410.10
 G, KJ/KG        -13271.3 -11929.2 -7358.65
 S, KJ/(KG)(K)     7.8608   7.8608   7.8608

 M, (1/n)          29.449   29.449   29.449
 Cp, KJ/(KG)(K)    1.3135   1.2898   1.1545
 GAMMAs            1.2738   1.2802   1.3237
 SON VEL,M/SEC      777.1    730.0    541.6
 MACH NUMBER        0.000    1.000    2.757

 PERFORMANCE PARAMETERS

 Ae/At                      1.0000   4.0000
 CSTAR, M/SEC               1038.3   1038.3
 CF                         0.7031   1.4383
 Ivac, M/SEC                1300.2   1641.8
 Isp, M/SEC                  730.0   1493.4

 MASS FRACTIONS

 *CO2            0.12676   H2O             0.04403   *NO             0.00239
 NO2             0.00008   *N2             0.61018   *OH             0.00007
 *O2             0.21648

  * THERMODYNAMIC PROPERTIES FITTED TO 20000.K

 NOTE. WEIGHT FRACTION OF FUEL IN TOTAL FUELS AND OF OXIDANT IN TOTAL OXIDANTS

           THEORETICAL ROCKET PERFORMANCE ASSUMING FROZEN COMPOSITION

 Pin =   646.6 PSIA
 CASE = _______________

             REACTANT                    WT FRACTION      ENERGY      TEMP
                                          (SEE NOTE)     KJ/KG-MOL      K  
 FUEL        paraffin                     1.0000000  -1860600.000    298.150
 OXIDANT     N2O                          1.0000000         0.000      0.000

 O/F=   24.30000  %FUEL=  3.952569  R,EQ.RATIO= 0.376071  PHI,EQ.RATIO= 0.376071

                 CHAMBER   THROAT     EXIT
 Pinf/P            1.0000   1.8208   27.986
 P, BAR            44.583   24.485   1.5931
 T, K             1678.95  1474.32   784.93
 RHO, KG/CU M    9.4051 0 5.8822 0 7.1885-1
 H, KJ/KG         -73.412  -339.86 -1188.48
 U, KJ/KG         -547.44  -756.11 -1410.10
 G, KJ/KG        -13260.4 -11919.7 -7353.58
 S, KJ/(KG)(K)     7.8543   7.8543   7.8543

 M, (1/n)          29.449   29.449   29.449
 Cp, KJ/(KG)(K)    1.3135   1.2898   1.1545
 GAMMAs            1.2738   1.2802   1.3237
 SON VEL,M/SEC      777.1    730.0    541.6
 MACH NUMBER        0.000    1.000    2.757

 PERFORMANCE PARAMETERS

 Ae/At                      1.0000   4.0000
 CSTAR, M/SEC               1038.3   1038.3
 CF                         0.7031   1.4383
 Ivac, M/SEC                1300.2   1641.8
 Isp, M/SEC                  730.0   1493.4

 MASS FRACTIONS

 *CO2            0.12676   H2O             0.04403   *NO             0.00239
 NO2             0.00008   *N2             0.61018   *OH             0.00007
 *O2             0.21648

  * THERMODYNAMIC PROPERTIES FITTED TO 20000.K

 NOTE. WEIGHT FRACTION OF FUEL IN TOTAL FUELS AND OF OXIDANT IN TOTAL OXIDANTS

           THEORETICAL ROCKET PERFORMANCE ASSUMING FROZEN COMPOSITION

 Pin =   661.3 PSIA
 CASE = _______________

             REACTANT                    WT FRACTION      ENERGY      TEMP
                                          (SEE NOTE)     KJ/KG-MOL      K  
 FUEL        paraffin                     1.0000000  -1860600.000    298.150
 OXIDANT     N2O                          1.0000000         0.000      0.000

 O/F=   24.30000  %FUEL=  3.952569  R,EQ.RATIO= 0.376071  PHI,EQ.RATIO= 0.376071

                 CHAMBER   THROAT     EXIT
 Pinf/P            1.0000   1.8208   27.986
 P, BAR            45.596   25.042   1.6293
 T, K             1678.95  1474.32   784.93
 RHO, KG/CU M    9.6188 0 6.0159 0 7.3518-1
 H, KJ/KG         -73.412  -339.86 -1188.48
 U, KJ/KG         -547.44  -756.11 -1410.10
 G, KJ/KG        -13249.8 -11910.3 -7348.61
 S, KJ/(KG)(K)     7.8480   7.8480   7.8480

 M, (1/n)          29.449   29.449   29.449
 Cp, KJ/(KG)(K)    1.3135   1.2898   1.1545
 GAMMAs            1.2738   1.2802   1.3237
 SON VEL,M/SEC      777.1    730.0    541.6
 MACH NUMBER        0.000    1.000    2.757

 PERFORMANCE PARAMETERS

 Ae/At                      1.0000   4.0000
 CSTAR, M/SEC               1038.3   1038.3
 CF                         0.7031   1.4383
 Ivac, M/SEC                1300.2   1641.8
 Isp, M/SEC                  730.0   1493.4

 MASS FRACTIONS

 *CO2            0.12676   H2O             0.04403   *NO             0.00239
 NO2             0.00008   *N2             0.61018   *OH             0.00007
 *O2             0.21648

  * THERMODYNAMIC PROPERTIES FITTED TO 20000.K

 NOTE. WEIGHT FRACTION OF FUEL IN TOTAL FUELS AND OF OXIDANT IN TOTAL OXIDANTS

           THEORETICAL ROCKET PERFORMANCE ASSUMING FROZEN COMPOSITION

 Pin =   676.0 PSIA
 CASE = _______________

             REACTANT                    WT FRACTION      ENERGY      TEMP
                                          (SEE NOTE)     KJ/KG-MOL      K  
 FUEL        paraffin                     1.0000000  -1860600.000    298.150
 OXIDANT     N2O                          1.0000000         0.000      0.000

 O/F=   24.30000  %FUEL=  3.952569  R,EQ.RATIO= 0.376071  PHI,EQ.RATIO= 0.376071

                 CHAMBER   THROAT     EXIT
 Pinf/P            1.0000   1.8208   27.986
 P, BAR            46.609   25.598   1.6655
 T, K             1678.95  1474.32   784.93
 RHO, KG/CU M    9.8326 0 6.1496 0 7.5152-1
 H, KJ/KG         -73.412  -339.86 -1188.48
 U, KJ/KG         -547.44  -756.11 -1410.10
 G, KJ/KG        -13239.4 -11901.2 -7343.75
 S, KJ/(KG)(K)     7.8418   7.8418   7.8418

 M, (1/n)          29.449   29.449   29.449
 Cp, KJ/(KG)(K)    1.3135   1.2898   1.1545
 GAMMAs            1.2738   1.2802   1.3237
 SON VEL,M/SEC      777.1    730.0    541.6
 MACH NUMBER        0.000    1.000    2.757

 PERFORMANCE PARAMETERS

 Ae/At                      1.0000   4.0000
 CSTAR, M/SEC               1038.3   1038.3
 CF                         0.7031   1.4383
 Ivac, M/SEC                1300.2   1641.8
 Isp, M/SEC                  730.0   1493.4

 MASS FRACTIONS

 *CO2            0.12676   H2O             0.04403   *NO             0.00239
 NO2             0.00008   *N2             0.61018   *OH             0.00007
 *O2             0.21648

  * THERMODYNAMIC PROPERTIES FITTED TO 20000.K

 NOTE. WEIGHT FRACTION OF FUEL IN TOTAL FUELS AND OF OXIDANT IN TOTAL OXIDANTS

           THEORETICAL ROCKET PERFORMANCE ASSUMING FROZEN COMPOSITION

 Pin =   690.7 PSIA
 CASE = _______________

             REACTANT                    WT FRACTION      ENERGY      TEMP
                                          (SEE NOTE)     KJ/KG-MOL      K  
 FUEL        paraffin                     1.0000000  -1860600.000    298.150
 OXIDANT     N2O                          1.0000000         0.000      0.000

 O/F=   24.30000  %FUEL=  3.952569  R,EQ.RATIO= 0.376071  PHI,EQ.RATIO= 0.376071

                 CHAMBER   THROAT     EXIT
 Pinf/P            1.0000   1.8208   27.986
 P, BAR            47.623   26.155   1.7017
 T, K             1678.95  1474.33   784.93
 RHO, KG/CU M    1.0046 1 6.2833 0 7.6786-1
 H, KJ/KG         -73.412  -339.86 -1188.49
 U, KJ/KG         -547.44  -756.12 -1410.10
 G, KJ/KG        -13229.2 -11892.3 -7339.00
 S, KJ/(KG)(K)     7.8357   7.8357   7.8357

 M, (1/n)          29.449   29.449   29.449
 Cp, KJ/(KG)(K)    1.3135   1.2898   1.1545
 GAMMAs            1.2738   1.2802   1.3237
 SON VEL,M/SEC      777.1    730.0    541.6
 MACH NUMBER        0.000    1.000    2.757

 PERFORMANCE PARAMETERS

 Ae/At                      1.0000   4.0000
 CSTAR, M/SEC               1038.3   1038.3
 CF                         0.7031   1.4383
 Ivac, M/SEC                1300.2   1641.8
 Isp, M/SEC                  730.0   1493.4

 MASS FRACTIONS

 *CO2            0.12676   H2O             0.04403   *NO             0.00239
 NO2             0.00008   *N2             0.61018   *OH             0.00007
 *O2             0.21648

  * THERMODYNAMIC PROPERTIES FITTED TO 20000.K

 NOTE. WEIGHT FRACTION OF FUEL IN TOTAL FUELS AND OF OXIDANT IN TOTAL OXIDANTS

           THEORETICAL ROCKET PERFORMANCE ASSUMING FROZEN COMPOSITION

 Pin =   705.4 PSIA
 CASE = _______________

             REACTANT                    WT FRACTION      ENERGY      TEMP
                                          (SEE NOTE)     KJ/KG-MOL      K  
 FUEL        paraffin                     1.0000000  -1860600.000    298.150
 OXIDANT     N2O                          1.0000000         0.000      0.000

 O/F=   24.30000  %FUEL=  3.952569  R,EQ.RATIO= 0.376071  PHI,EQ.RATIO= 0.376071

                 CHAMBER   THROAT     EXIT
 Pinf/P            1.0000   1.8208   27.986
 P, BAR            48.636   26.711   1.7379
 T, K             1678.96  1474.33   784.94
 RHO, KG/CU M    1.0260 1 6.4170 0 7.8419-1
 H, KJ/KG         -73.412  -339.86 -1188.49
 U, KJ/KG         -547.44  -756.12 -1410.10
 G, KJ/KG        -13219.3 -11883.5 -7334.35
 S, KJ/(KG)(K)     7.8298   7.8298   7.8298

 M, (1/n)          29.449   29.449   29.449
 Cp, KJ/(KG)(K)    1.3135   1.2898   1.1545
 GAMMAs            1.2738   1.2802   1.3237
 SON VEL,M/SEC      777.1    730.0    541.6
 MACH NUMBER        0.000    1.000    2.757

 PERFORMANCE PARAMETERS

 Ae/At                      1.0000   4.0000
 CSTAR, M/SEC               1038.3   1038.3
 CF                         0.7031   1.4383
 Ivac, M/SEC                1300.2   1641.8
 Isp, M/SEC                  730.0   1493.4

 MASS FRACTIONS

 *CO2            0.12676   H2O             0.04403   *NO             0.00239
 NO2             0.00008   *N2             0.61018   *OH             0.00007
 *O2             0.21648

  * THERMODYNAMIC PROPERTIES FITTED TO 20000.K

 NOTE. WEIGHT FRACTION OF FUEL IN TOTAL FUELS AND OF OXIDANT IN TOTAL OXIDANTS

           THEORETICAL ROCKET PERFORMANCE ASSUMING FROZEN COMPOSITION

 Pin =   367.4 PSIA
 CASE = _______________

             REACTANT                    WT FRACTION      ENERGY      TEMP
                                          (SEE NOTE)     KJ/KG-MOL      K  
 FUEL        paraffin                     1.0000000  -1860600.000    298.150
 OXIDANT     N2O                          1.0000000         0.000      0.000

 O/F=   24.50000  %FUEL=  3.921569  R,EQ.RATIO= 0.373001  PHI,EQ.RATIO= 0.373001

                 CHAMBER   THROAT     EXIT
 Pinf/P            1.0000   1.8211   28.020
 P, BAR            25.331   13.910  0.90404
 T, K             1669.78  1465.96   779.49
 RHO, KG/CU M    5.3729 0 3.3606 0 4.1076-1
 H, KJ/KG         -72.836  -337.88 -1181.60
 U, KJ/KG         -544.30  -751.79 -1401.69
 G, KJ/KG        -13440.5 -12073.8 -7421.94
 S, KJ/(KG)(K)     8.0057   8.0057   8.0057

 M, (1/n)          29.448   29.448   29.448
 Cp, KJ/(KG)(K)    1.3119   1.2881   1.1525
 GAMMAs            1.2743   1.2807   1.3245
 SON VEL,M/SEC      775.1    728.1    539.9
 MACH NUMBER        0.000    1.000    2.758

 PERFORMANCE PARAMETERS

 Ae/At                      1.0000   4.0000
 CSTAR, M/SEC               1035.3   1035.3
 CF                         0.7032   1.4384
 Ivac, M/SEC                1296.6   1636.9
 Isp, M/SEC                  728.1   1489.1

 MASS FRACTIONS

 *CO2            0.12576   H2O             0.04368   *NO             0.00232
 NO2             0.00006   *N2             0.61042   *OH             0.00007
 *O2             0.21767

  * THERMODYNAMIC PROPERTIES FITTED TO 20000.K

 NOTE. WEIGHT FRACTION OF FUEL IN TOTAL FUELS AND OF OXIDANT IN TOTAL OXIDANTS

           THEORETICAL ROCKET PERFORMANCE ASSUMING FROZEN COMPOSITION

 Pin =   382.1 PSIA
 CASE = _______________

             REACTANT                    WT FRACTION      ENERGY      TEMP
                                          (SEE NOTE)     KJ/KG-MOL      K  
 FUEL        paraffin                     1.0000000  -1860600.000    298.150
 OXIDANT     N2O                          1.0000000         0.000      0.000

 O/F=   24.50000  %FUEL=  3.921569  R,EQ.RATIO= 0.373001  PHI,EQ.RATIO= 0.373001

                 CHAMBER   THROAT     EXIT
 Pinf/P            1.0000   1.8211   28.020
 P, BAR            26.345   14.466  0.94020
 T, K             1669.78  1465.96   779.49
 RHO, KG/CU M    5.5879 0 3.4950 0 4.2719-1
 H, KJ/KG         -72.836  -337.88 -1181.61
 U, KJ/KG         -544.30  -751.80 -1401.69
 G, KJ/KG        -13422.1 -12057.6 -7413.33
 S, KJ/(KG)(K)     7.9946   7.9946   7.9946

 M, (1/n)          29.448   29.448   29.448
 Cp, KJ/(KG)(K)    1.3119   1.2881   1.1525
 GAMMAs            1.2743   1.2807   1.3245
 SON VEL,M/SEC      775.1    728.1    539.9
 MACH NUMBER        0.000    1.000    2.758

 PERFORMANCE PARAMETERS

 Ae/At                     1.00000   4.0000
 CSTAR, M/SEC               1035.3   1035.3
 CF                         0.7032   1.4384
 Ivac, M/SEC                1296.6   1636.9
 Isp, M/SEC                  728.1   1489.1

 MASS FRACTIONS

 *CO2            0.12576   H2O             0.04369   *NO             0.00232
 NO2             0.00006   *N2             0.61042   *OH             0.00007
 *O2             0.21767

  * THERMODYNAMIC PROPERTIES FITTED TO 20000.K

 NOTE. WEIGHT FRACTION OF FUEL IN TOTAL FUELS AND OF OXIDANT IN TOTAL OXIDANTS

           THEORETICAL ROCKET PERFORMANCE ASSUMING FROZEN COMPOSITION

 Pin =   396.8 PSIA
 CASE = _______________

             REACTANT                    WT FRACTION      ENERGY      TEMP
                                          (SEE NOTE)     KJ/KG-MOL      K  
 FUEL        paraffin                     1.0000000  -1860600.000    298.150
 OXIDANT     N2O                          1.0000000         0.000      0.000

 O/F=   24.50000  %FUEL=  3.921569  R,EQ.RATIO= 0.373001  PHI,EQ.RATIO= 0.373001

                 CHAMBER   THROAT     EXIT
 Pinf/P            1.0000   1.8211   28.020
 P, BAR            27.358   15.022  0.97637
 T, K             1669.79  1465.96   779.50
 RHO, KG/CU M    5.8028 0 3.6294 0 4.4362-1
 H, KJ/KG         -72.836  -337.89 -1181.61
 U, KJ/KG         -544.30  -751.80 -1401.70
 G, KJ/KG        -13404.3 -12042.1 -7405.06
 S, KJ/(KG)(K)     7.9839   7.9839   7.9839

 M, (1/n)          29.448   29.448   29.448
 Cp, KJ/(KG)(K)    1.3119   1.2881   1.1525
 GAMMAs            1.2743   1.2807   1.3245
 SON VEL,M/SEC      775.1    728.1    539.9
 MACH NUMBER        0.000    1.000    2.758

 PERFORMANCE PARAMETERS

 Ae/At                      1.0000   4.0000
 CSTAR, M/SEC               1035.3   1035.3
 CF                         0.7032   1.4384
 Ivac, M/SEC                1296.6   1636.9
 Isp, M/SEC                  728.1   1489.1

 MASS FRACTIONS

 *CO2            0.12576   H2O             0.04369   *NO             0.00232
 NO2             0.00006   *N2             0.61042   *OH             0.00007
 *O2             0.21767

  * THERMODYNAMIC PROPERTIES FITTED TO 20000.K

 NOTE. WEIGHT FRACTION OF FUEL IN TOTAL FUELS AND OF OXIDANT IN TOTAL OXIDANTS

           THEORETICAL ROCKET PERFORMANCE ASSUMING FROZEN COMPOSITION

 Pin =   411.5 PSIA
 CASE = _______________

             REACTANT                    WT FRACTION      ENERGY      TEMP
                                          (SEE NOTE)     KJ/KG-MOL      K  
 FUEL        paraffin                     1.0000000  -1860600.000    298.150
 OXIDANT     N2O                          1.0000000         0.000      0.000

 O/F=   24.50000  %FUEL=  3.921569  R,EQ.RATIO= 0.373001  PHI,EQ.RATIO= 0.373001

                 CHAMBER   THROAT     EXIT
 Pinf/P            1.0000   1.8211   28.020
 P, BAR            28.371   15.579   1.0125
 T, K             1669.79  1465.97   779.50
 RHO, KG/CU M    6.0177 0 3.7638 0 4.6005-1
 H, KJ/KG         -72.836  -337.89 -1181.61
 U, KJ/KG         -544.30  -751.80 -1401.70
 G, KJ/KG        -13387.2 -12027.0 -7397.08
 S, KJ/(KG)(K)     7.9737   7.9737   7.9737

 M, (1/n)          29.448   29.448   29.448
 Cp, KJ/(KG)(K)    1.3119   1.2881   1.1525
 GAMMAs            1.2743   1.2807   1.3245
 SON VEL,M/SEC      775.1    728.1    539.9
 MACH NUMBER        0.000    1.000    2.758

 PERFORMANCE PARAMETERS

 Ae/At                      1.0000   4.0000
 CSTAR, M/SEC               1035.3   1035.3
 CF                         0.7032   1.4384
 Ivac, M/SEC                1296.6   1636.9
 Isp, M/SEC                  728.1   1489.1

 MASS FRACTIONS

 *CO2            0.12576   H2O             0.04369   *NO             0.00232
 NO2             0.00006   *N2             0.61042   *OH             0.00007
 *O2             0.21767

  * THERMODYNAMIC PROPERTIES FITTED TO 20000.K

 NOTE. WEIGHT FRACTION OF FUEL IN TOTAL FUELS AND OF OXIDANT IN TOTAL OXIDANTS

           THEORETICAL ROCKET PERFORMANCE ASSUMING FROZEN COMPOSITION

 Pin =   426.2 PSIA
 CASE = _______________

             REACTANT                    WT FRACTION      ENERGY      TEMP
                                          (SEE NOTE)     KJ/KG-MOL      K  
 FUEL        paraffin                     1.0000000  -1860600.000    298.150
 OXIDANT     N2O                          1.0000000         0.000      0.000

 O/F=   24.50000  %FUEL=  3.921569  R,EQ.RATIO= 0.373001  PHI,EQ.RATIO= 0.373001

                 CHAMBER   THROAT     EXIT
 Pinf/P            1.0000   1.8211   28.020
 P, BAR            29.384   16.135   1.0487
 T, K             1669.80  1465.97   779.50
 RHO, KG/CU M    6.2326 0 3.8982 0 4.7648-1
 H, KJ/KG         -72.836  -337.89 -1181.61
 U, KJ/KG         -544.30  -751.80 -1401.70
 G, KJ/KG        -13370.7 -12012.5 -7389.38
 S, KJ/(KG)(K)     7.9638   7.9638   7.9638

 M, (1/n)          29.448   29.448   29.448
 Cp, KJ/(KG)(K)    1.3119   1.2881   1.1525
 GAMMAs            1.2743   1.2807   1.3245
 SON VEL,M/SEC      775.1    728.1    539.9
 MACH NUMBER        0.000    1.000    2.758

 PERFORMANCE PARAMETERS

 Ae/At                      1.0000   4.0000
 CSTAR, M/SEC               1035.3   1035.3
 CF                         0.7032   1.4384
 Ivac, M/SEC                1296.6   1636.9
 Isp, M/SEC                  728.1   1489.1

 MASS FRACTIONS

 *CO2            0.12576   H2O             0.04369   *NO             0.00232
 NO2             0.00006   *N2             0.61042   *OH             0.00007
 *O2             0.21767

  * THERMODYNAMIC PROPERTIES FITTED TO 20000.K

 NOTE. WEIGHT FRACTION OF FUEL IN TOTAL FUELS AND OF OXIDANT IN TOTAL OXIDANTS

           THEORETICAL ROCKET PERFORMANCE ASSUMING FROZEN COMPOSITION

 Pin =   440.9 PSIA
 CASE = _______________

             REACTANT                    WT FRACTION      ENERGY      TEMP
                                          (SEE NOTE)     KJ/KG-MOL      K  
 FUEL        paraffin                     1.0000000  -1860600.000    298.150
 OXIDANT     N2O                          1.0000000         0.000      0.000

 O/F=   24.50000  %FUEL=  3.921569  R,EQ.RATIO= 0.373001  PHI,EQ.RATIO= 0.373001

                 CHAMBER   THROAT     EXIT
 Pinf/P            1.0000   1.8211   28.020
 P, BAR            30.398   16.692   1.0849
 T, K             1669.80  1465.98   779.50
 RHO, KG/CU M    6.4475 0 4.0326 0 4.9291-1
 H, KJ/KG         -72.836  -337.89 -1181.62
 U, KJ/KG         -544.30  -751.80 -1401.71
 G, KJ/KG        -13354.7 -11998.5 -7381.94
 S, KJ/(KG)(K)     7.9542   7.9542   7.9542

 M, (1/n)          29.448   29.448   29.448
 Cp, KJ/(KG)(K)    1.3119   1.2881   1.1525
 GAMMAs            1.2742   1.2807   1.3245
 SON VEL,M/SEC      775.1    728.1    539.9
 MACH NUMBER        0.000    1.000    2.758

 PERFORMANCE PARAMETERS

 Ae/At                      1.0000   4.0000
 CSTAR, M/SEC               1035.3   1035.3
 CF                         0.7032   1.4384
 Ivac, M/SEC                1296.6   1636.9
 Isp, M/SEC                  728.1   1489.1

 MASS FRACTIONS

 *CO2            0.12576   H2O             0.04369   *NO             0.00232
 NO2             0.00006   *N2             0.61042   *OH             0.00007
 *O2             0.21767

  * THERMODYNAMIC PROPERTIES FITTED TO 20000.K

 NOTE. WEIGHT FRACTION OF FUEL IN TOTAL FUELS AND OF OXIDANT IN TOTAL OXIDANTS

           THEORETICAL ROCKET PERFORMANCE ASSUMING FROZEN COMPOSITION

 Pin =   455.6 PSIA
 CASE = _______________

             REACTANT                    WT FRACTION      ENERGY      TEMP
                                          (SEE NOTE)     KJ/KG-MOL      K  
 FUEL        paraffin                     1.0000000  -1860600.000    298.150
 OXIDANT     N2O                          1.0000000         0.000      0.000

 O/F=   24.50000  %FUEL=  3.921569  R,EQ.RATIO= 0.373001  PHI,EQ.RATIO= 0.373001

                 CHAMBER   THROAT     EXIT
 Pinf/P            1.0000   1.8211   28.020
 P, BAR            31.411   17.248   1.1210
 T, K             1669.80  1465.98   779.51
 RHO, KG/CU M    6.6624 0 4.1670 0 5.0934-1
 H, KJ/KG         -72.836  -337.89 -1181.62
 U, KJ/KG         -544.30  -751.80 -1401.71
 G, KJ/KG        -13339.3 -11985.0 -7374.75
 S, KJ/(KG)(K)     7.9449   7.9449   7.9449

 M, (1/n)          29.448   29.448   29.448
 Cp, KJ/(KG)(K)    1.3119   1.2881   1.1525
 GAMMAs            1.2742   1.2807   1.3245
 SON VEL,M/SEC      775.1    728.1    539.9
 MACH NUMBER        0.000    1.000    2.758

 PERFORMANCE PARAMETERS

 Ae/At                      1.0000   4.0000
 CSTAR, M/SEC               1035.3   1035.3
 CF                         0.7032   1.4384
 Ivac, M/SEC                1296.6   1636.9
 Isp, M/SEC                  728.1   1489.1

 MASS FRACTIONS

 *CO2            0.12576   H2O             0.04369   *NO             0.00232
 NO2             0.00007   *N2             0.61042   *OH             0.00007
 *O2             0.21767

  * THERMODYNAMIC PROPERTIES FITTED TO 20000.K

 NOTE. WEIGHT FRACTION OF FUEL IN TOTAL FUELS AND OF OXIDANT IN TOTAL OXIDANTS

           THEORETICAL ROCKET PERFORMANCE ASSUMING FROZEN COMPOSITION

 Pin =   470.3 PSIA
 CASE = _______________

             REACTANT                    WT FRACTION      ENERGY      TEMP
                                          (SEE NOTE)     KJ/KG-MOL      K  
 FUEL        paraffin                     1.0000000  -1860600.000    298.150
 OXIDANT     N2O                          1.0000000         0.000      0.000

 O/F=   24.50000  %FUEL=  3.921569  R,EQ.RATIO= 0.373001  PHI,EQ.RATIO= 0.373001

                 CHAMBER   THROAT     EXIT
 Pinf/P            1.0000   1.8211   28.020
 P, BAR            32.424   17.804   1.1572
 T, K             1669.81  1465.98   779.51
 RHO, KG/CU M    6.8773 0 4.3014 0 5.2577-1
 H, KJ/KG         -72.836  -337.89 -1181.62
 U, KJ/KG         -544.30  -751.80 -1401.71
 G, KJ/KG        -13324.4 -11971.9 -7367.78
 S, KJ/(KG)(K)     7.9360   7.9360   7.9360

 M, (1/n)          29.448   29.448   29.448
 Cp, KJ/(KG)(K)    1.3119   1.2881   1.1525
 GAMMAs            1.2742   1.2807   1.3245
 SON VEL,M/SEC      775.1    728.1    539.9
 MACH NUMBER        0.000    1.000    2.758

 PERFORMANCE PARAMETERS

 Ae/At                      1.0000   4.0000
 CSTAR, M/SEC               1035.3   1035.3
 CF                         0.7032   1.4384
 Ivac, M/SEC                1296.6   1636.9
 Isp, M/SEC                  728.1   1489.1

 MASS FRACTIONS

 *CO2            0.12576   H2O             0.04369   *NO             0.00232
 NO2             0.00007   *N2             0.61042   *OH             0.00007
 *O2             0.21767

  * THERMODYNAMIC PROPERTIES FITTED TO 20000.K

 NOTE. WEIGHT FRACTION OF FUEL IN TOTAL FUELS AND OF OXIDANT IN TOTAL OXIDANTS

           THEORETICAL ROCKET PERFORMANCE ASSUMING FROZEN COMPOSITION

 Pin =   485.0 PSIA
 CASE = _______________

             REACTANT                    WT FRACTION      ENERGY      TEMP
                                          (SEE NOTE)     KJ/KG-MOL      K  
 FUEL        paraffin                     1.0000000  -1860600.000    298.150
 OXIDANT     N2O                          1.0000000         0.000      0.000

 O/F=   24.50000  %FUEL=  3.921569  R,EQ.RATIO= 0.373001  PHI,EQ.RATIO= 0.373001

                 CHAMBER   THROAT     EXIT
 Pinf/P            1.0000   1.8211   28.020
 P, BAR            33.437   18.361   1.1933
 T, K             1669.81  1465.99   779.51
 RHO, KG/CU M    7.0922 0 4.4359 0 5.4220-1
 H, KJ/KG         -72.836  -337.89 -1181.62
 U, KJ/KG         -544.30  -751.80 -1401.71
 G, KJ/KG        -13309.9 -11959.2 -7361.03
 S, KJ/(KG)(K)     7.9273   7.9273   7.9273

 M, (1/n)          29.448   29.448   29.448
 Cp, KJ/(KG)(K)    1.3119   1.2881   1.1525
 GAMMAs            1.2742   1.2807   1.3245
 SON VEL,M/SEC      775.1    728.1    539.9
 MACH NUMBER        0.000    1.000    2.758

 PERFORMANCE PARAMETERS

 Ae/At                      1.0000   4.0000
 CSTAR, M/SEC               1035.3   1035.3
 CF                         0.7032   1.4384
 Ivac, M/SEC                1296.6   1636.9
 Isp, M/SEC                  728.1   1489.2

 MASS FRACTIONS

 *CO2            0.12576   H2O             0.04369   *NO             0.00232
 NO2             0.00007   *N2             0.61042   *OH             0.00007
 *O2             0.21767

  * THERMODYNAMIC PROPERTIES FITTED TO 20000.K

 NOTE. WEIGHT FRACTION OF FUEL IN TOTAL FUELS AND OF OXIDANT IN TOTAL OXIDANTS

           THEORETICAL ROCKET PERFORMANCE ASSUMING FROZEN COMPOSITION

 Pin =   499.7 PSIA
 CASE = _______________

             REACTANT                    WT FRACTION      ENERGY      TEMP
                                          (SEE NOTE)     KJ/KG-MOL      K  
 FUEL        paraffin                     1.0000000  -1860600.000    298.150
 OXIDANT     N2O                          1.0000000         0.000      0.000

 O/F=   24.50000  %FUEL=  3.921569  R,EQ.RATIO= 0.373001  PHI,EQ.RATIO= 0.373001

                 CHAMBER   THROAT     EXIT
 Pinf/P            1.0000   1.8211   28.020
 P, BAR            34.450   18.917   1.2295
 T, K             1669.81  1465.99   779.51
 RHO, KG/CU M    7.3071 0 4.5703 0 5.5863-1
 H, KJ/KG         -72.836  -337.89 -1181.62
 U, KJ/KG         -544.30  -751.81 -1401.72
 G, KJ/KG        -13295.8 -11946.8 -7354.48
 S, KJ/(KG)(K)     7.9188   7.9188   7.9188

 M, (1/n)          29.448   29.448   29.448
 Cp, KJ/(KG)(K)    1.3119   1.2881   1.1525
 GAMMAs            1.2742   1.2807   1.3245
 SON VEL,M/SEC      775.1    728.1    539.9
 MACH NUMBER        0.000    1.000    2.758

 PERFORMANCE PARAMETERS

 Ae/At                      1.0000   4.0000
 CSTAR, M/SEC               1035.3   1035.3
 CF                         0.7032   1.4384
 Ivac, M/SEC                1296.6   1636.9
 Isp, M/SEC                  728.1   1489.2

 MASS FRACTIONS

 *CO2            0.12576   H2O             0.04369   *NO             0.00232
 NO2             0.00007   *N2             0.61042   *OH             0.00007
 *O2             0.21767

  * THERMODYNAMIC PROPERTIES FITTED TO 20000.K

 NOTE. WEIGHT FRACTION OF FUEL IN TOTAL FUELS AND OF OXIDANT IN TOTAL OXIDANTS

           THEORETICAL ROCKET PERFORMANCE ASSUMING FROZEN COMPOSITION

 Pin =   514.4 PSIA
 CASE = _______________

             REACTANT                    WT FRACTION      ENERGY      TEMP
                                          (SEE NOTE)     KJ/KG-MOL      K  
 FUEL        paraffin                     1.0000000  -1860600.000    298.150
 OXIDANT     N2O                          1.0000000         0.000      0.000

 O/F=   24.50000  %FUEL=  3.921569  R,EQ.RATIO= 0.373001  PHI,EQ.RATIO= 0.373001

                 CHAMBER   THROAT     EXIT
 Pinf/P            1.0000   1.8211   28.020
 P, BAR            35.464   19.474   1.2657
 T, K             1669.82  1465.99   779.52
 RHO, KG/CU M    7.5220 0 4.7047 0 5.7506-1
 H, KJ/KG         -72.836  -337.89 -1181.62
 U, KJ/KG         -544.30  -751.81 -1401.72
 G, KJ/KG        -13282.2 -11934.9 -7348.12
 S, KJ/(KG)(K)     7.9107   7.9107   7.9107

 M, (1/n)          29.448   29.448   29.448
 Cp, KJ/(KG)(K)    1.3119   1.2881   1.1525
 GAMMAs            1.2742   1.2807   1.3245
 SON VEL,M/SEC      775.1    728.1    539.9
 MACH NUMBER        0.000    1.000    2.758

 PERFORMANCE PARAMETERS

 Ae/At                      1.0000   4.0000
 CSTAR, M/SEC               1035.3   1035.3
 CF                         0.7032   1.4384
 Ivac, M/SEC                1296.6   1637.0
 Isp, M/SEC                  728.1   1489.2

 MASS FRACTIONS

 *CO2            0.12576   H2O             0.04369   *NO             0.00232
 NO2             0.00007   *N2             0.61042   *OH             0.00007
 *O2             0.21767

  * THERMODYNAMIC PROPERTIES FITTED TO 20000.K

 NOTE. WEIGHT FRACTION OF FUEL IN TOTAL FUELS AND OF OXIDANT IN TOTAL OXIDANTS

           THEORETICAL ROCKET PERFORMANCE ASSUMING FROZEN COMPOSITION

 Pin =   529.1 PSIA
 CASE = _______________

             REACTANT                    WT FRACTION      ENERGY      TEMP
                                          (SEE NOTE)     KJ/KG-MOL      K  
 FUEL        paraffin                     1.0000000  -1860600.000    298.150
 OXIDANT     N2O                          1.0000000         0.000      0.000

 O/F=   24.50000  %FUEL=  3.921569  R,EQ.RATIO= 0.373001  PHI,EQ.RATIO= 0.373001

                 CHAMBER   THROAT     EXIT
 Pinf/P            1.0000   1.8211   28.020
 P, BAR            36.477   20.030   1.3018
 T, K             1669.82  1466.00   779.52
 RHO, KG/CU M    7.7369 0 4.8391 0 5.9149-1
 H, KJ/KG         -72.836  -337.89 -1181.63
 U, KJ/KG         -544.30  -751.81 -1401.72
 G, KJ/KG        -13268.9 -11923.2 -7341.94
 S, KJ/(KG)(K)     7.9027   7.9027   7.9027

 M, (1/n)          29.448   29.448   29.448
 Cp, KJ/(KG)(K)    1.3119   1.2881   1.1525
 GAMMAs            1.2742   1.2807   1.3245
 SON VEL,M/SEC      775.1    728.1    539.9
 MACH NUMBER        0.000    1.000    2.758

 PERFORMANCE PARAMETERS

 Ae/At                      1.0000   4.0000
 CSTAR, M/SEC               1035.3   1035.3
 CF                         0.7032   1.4384
 Ivac, M/SEC                1296.6   1637.0
 Isp, M/SEC                  728.1   1489.2

 MASS FRACTIONS

 *CO2            0.12576   H2O             0.04369   *NO             0.00232
 NO2             0.00007   *N2             0.61042   *OH             0.00007
 *O2             0.21767

  * THERMODYNAMIC PROPERTIES FITTED TO 20000.K

 NOTE. WEIGHT FRACTION OF FUEL IN TOTAL FUELS AND OF OXIDANT IN TOTAL OXIDANTS

           THEORETICAL ROCKET PERFORMANCE ASSUMING FROZEN COMPOSITION

 Pin =   543.8 PSIA
 CASE = _______________

             REACTANT                    WT FRACTION      ENERGY      TEMP
                                          (SEE NOTE)     KJ/KG-MOL      K  
 FUEL        paraffin                     1.0000000  -1860600.000    298.150
 OXIDANT     N2O                          1.0000000         0.000      0.000

 O/F=   24.50000  %FUEL=  3.921569  R,EQ.RATIO= 0.373001  PHI,EQ.RATIO= 0.373001

                 CHAMBER   THROAT     EXIT
 Pinf/P            1.0000   1.8211   28.020
 P, BAR            37.490   20.586   1.3380
 T, K             1669.82  1466.00   779.52
 RHO, KG/CU M    7.9518 0 4.9735 0 6.0792-1
 H, KJ/KG         -72.836  -337.89 -1181.63
 U, KJ/KG         -544.30  -751.81 -1401.72
 G, KJ/KG        -13256.0 -11911.9 -7335.93
 S, KJ/(KG)(K)     7.8950   7.8950   7.8950

 M, (1/n)          29.448   29.448   29.448
 Cp, KJ/(KG)(K)    1.3119   1.2881   1.1525
 GAMMAs            1.2742   1.2807   1.3245
 SON VEL,M/SEC      775.1    728.1    539.9
 MACH NUMBER        0.000    1.000    2.758

 PERFORMANCE PARAMETERS

 Ae/At                      1.0000   4.0000
 CSTAR, M/SEC               1035.3   1035.3
 CF                         0.7032   1.4384
 Ivac, M/SEC                1296.6   1637.0
 Isp, M/SEC                  728.1   1489.2

 MASS FRACTIONS

 *CO2            0.12576   H2O             0.04369   *NO             0.00232
 NO2             0.00007   *N2             0.61042   *OH             0.00007
 *O2             0.21767

  * THERMODYNAMIC PROPERTIES FITTED TO 20000.K

 NOTE. WEIGHT FRACTION OF FUEL IN TOTAL FUELS AND OF OXIDANT IN TOTAL OXIDANTS

           THEORETICAL ROCKET PERFORMANCE ASSUMING FROZEN COMPOSITION

 Pin =   558.4 PSIA
 CASE = _______________

             REACTANT                    WT FRACTION      ENERGY      TEMP
                                          (SEE NOTE)     KJ/KG-MOL      K  
 FUEL        paraffin                     1.0000000  -1860600.000    298.150
 OXIDANT     N2O                          1.0000000         0.000      0.000

 O/F=   24.50000  %FUEL=  3.921569  R,EQ.RATIO= 0.373001  PHI,EQ.RATIO= 0.373001

                 CHAMBER   THROAT     EXIT
 Pinf/P            1.0000   1.8211   28.020
 P, BAR            38.504   21.143   1.3742
 T, K             1669.83  1466.00   779.52
 RHO, KG/CU M    8.1667 0 5.1079 0 6.2435-1
 H, KJ/KG         -72.836  -337.89 -1181.63
 U, KJ/KG         -544.31  -751.81 -1401.72
 G, KJ/KG        -13243.5 -11900.9 -7330.08
 S, KJ/(KG)(K)     7.8874   7.8874   7.8874

 M, (1/n)          29.448   29.448   29.448
 Cp, KJ/(KG)(K)    1.3119   1.2881   1.1525
 GAMMAs            1.2742   1.2807   1.3245
 SON VEL,M/SEC      775.1    728.1    539.9
 MACH NUMBER        0.000    1.000    2.758

 PERFORMANCE PARAMETERS

 Ae/At                      1.0000   4.0000
 CSTAR, M/SEC               1035.3   1035.3
 CF                         0.7032   1.4384
 Ivac, M/SEC                1296.6   1637.0
 Isp, M/SEC                  728.1   1489.2

 MASS FRACTIONS

 *CO2            0.12576   H2O             0.04369   *NO             0.00232
 NO2             0.00007   *N2             0.61042   *OH             0.00007
 *O2             0.21767

  * THERMODYNAMIC PROPERTIES FITTED TO 20000.K

 NOTE. WEIGHT FRACTION OF FUEL IN TOTAL FUELS AND OF OXIDANT IN TOTAL OXIDANTS

           THEORETICAL ROCKET PERFORMANCE ASSUMING FROZEN COMPOSITION

 Pin =   573.1 PSIA
 CASE = _______________

             REACTANT                    WT FRACTION      ENERGY      TEMP
                                          (SEE NOTE)     KJ/KG-MOL      K  
 FUEL        paraffin                     1.0000000  -1860600.000    298.150
 OXIDANT     N2O                          1.0000000         0.000      0.000

 O/F=   24.50000  %FUEL=  3.921569  R,EQ.RATIO= 0.373001  PHI,EQ.RATIO= 0.373001

                 CHAMBER   THROAT     EXIT
 Pinf/P            1.0000   1.8211   28.020
 P, BAR            39.517   21.699   1.4103
 T, K             1669.83  1466.00   779.53
 RHO, KG/CU M    8.3816 0 5.2423 0 6.4078-1
 H, KJ/KG         -72.836  -337.89 -1181.63
 U, KJ/KG         -544.31  -751.81 -1401.73
 G, KJ/KG        -13231.3 -11890.2 -7324.37
 S, KJ/(KG)(K)     7.8801   7.8801   7.8801

 M, (1/n)          29.448   29.448   29.448
 Cp, KJ/(KG)(K)    1.3119   1.2881   1.1525
 GAMMAs            1.2742   1.2807   1.3245
 SON VEL,M/SEC      775.1    728.1    539.9
 MACH NUMBER        0.000    1.000    2.758

 PERFORMANCE PARAMETERS

 Ae/At                      1.0000   4.0000
 CSTAR, M/SEC               1035.3   1035.3
 CF                         0.7032   1.4384
 Ivac, M/SEC                1296.6   1637.0
 Isp, M/SEC                  728.1   1489.2

 MASS FRACTIONS

 *CO2            0.12576   H2O             0.04369   *NO             0.00232
 NO2             0.00007   *N2             0.61042   *OH             0.00007
 *O2             0.21767

  * THERMODYNAMIC PROPERTIES FITTED TO 20000.K

 NOTE. WEIGHT FRACTION OF FUEL IN TOTAL FUELS AND OF OXIDANT IN TOTAL OXIDANTS

           THEORETICAL ROCKET PERFORMANCE ASSUMING FROZEN COMPOSITION

 Pin =   587.8 PSIA
 CASE = _______________

             REACTANT                    WT FRACTION      ENERGY      TEMP
                                          (SEE NOTE)     KJ/KG-MOL      K  
 FUEL        paraffin                     1.0000000  -1860600.000    298.150
 OXIDANT     N2O                          1.0000000         0.000      0.000

 O/F=   24.50000  %FUEL=  3.921569  R,EQ.RATIO= 0.373001  PHI,EQ.RATIO= 0.373001

                 CHAMBER   THROAT     EXIT
 Pinf/P            1.0000   1.8211   28.020
 P, BAR            40.530   22.256   1.4465
 T, K             1669.83  1466.01   779.53
 RHO, KG/CU M    8.5965 0 5.3768 0 6.5721-1
 H, KJ/KG         -72.836  -337.89 -1181.63
 U, KJ/KG         -544.31  -751.81 -1401.73
 G, KJ/KG        -13219.4 -11879.7 -7318.82
 S, KJ/(KG)(K)     7.8730   7.8730   7.8730

 M, (1/n)          29.448   29.448   29.448
 Cp, KJ/(KG)(K)    1.3119   1.2881   1.1525
 GAMMAs            1.2742   1.2807   1.3245
 SON VEL,M/SEC      775.1    728.1    539.9
 MACH NUMBER        0.000    1.000    2.758

 PERFORMANCE PARAMETERS

 Ae/At                      1.0000   4.0000
 CSTAR, M/SEC               1035.3   1035.3
 CF                         0.7032   1.4384
 Ivac, M/SEC                1296.6   1637.0
 Isp, M/SEC                  728.1   1489.2

 MASS FRACTIONS

 *CO2            0.12576   H2O             0.04369   *NO             0.00232
 NO2             0.00007   *N2             0.61042   *OH             0.00007
 *O2             0.21767

  * THERMODYNAMIC PROPERTIES FITTED TO 20000.K

 NOTE. WEIGHT FRACTION OF FUEL IN TOTAL FUELS AND OF OXIDANT IN TOTAL OXIDANTS

           THEORETICAL ROCKET PERFORMANCE ASSUMING FROZEN COMPOSITION

 Pin =   602.5 PSIA
 CASE = _______________

             REACTANT                    WT FRACTION      ENERGY      TEMP
                                          (SEE NOTE)     KJ/KG-MOL      K  
 FUEL        paraffin                     1.0000000  -1860600.000    298.150
 OXIDANT     N2O                          1.0000000         0.000      0.000

 O/F=   24.50000  %FUEL=  3.921569  R,EQ.RATIO= 0.373001  PHI,EQ.RATIO= 0.373001

                 CHAMBER   THROAT     EXIT
 Pinf/P            1.0000   1.8211   28.020
 P, BAR            41.543   22.812   1.4826
 T, K             1669.83  1466.01   779.53
 RHO, KG/CU M    8.8114 0 5.5112 0 6.7363-1
 H, KJ/KG         -72.836  -337.89 -1181.63
 U, KJ/KG         -544.31  -751.81 -1401.73
 G, KJ/KG        -13207.7 -11869.5 -7313.40
 S, KJ/(KG)(K)     7.8660   7.8660   7.8660

 M, (1/n)          29.448   29.448   29.448
 Cp, KJ/(KG)(K)    1.3119   1.2881   1.1525
 GAMMAs            1.2742   1.2807   1.3245
 SON VEL,M/SEC      775.1    728.1    539.9
 MACH NUMBER        0.000    1.000    2.758

 PERFORMANCE PARAMETERS

 Ae/At                      1.0000   4.0000
 CSTAR, M/SEC               1035.3   1035.3
 CF                         0.7032   1.4384
 Ivac, M/SEC                1296.6   1637.0
 Isp, M/SEC                  728.1   1489.2

 MASS FRACTIONS

 *CO2            0.12576   H2O             0.04369   *NO             0.00232
 NO2             0.00008   *N2             0.61042   *OH             0.00007
 *O2             0.21766

  * THERMODYNAMIC PROPERTIES FITTED TO 20000.K

 NOTE. WEIGHT FRACTION OF FUEL IN TOTAL FUELS AND OF OXIDANT IN TOTAL OXIDANTS

           THEORETICAL ROCKET PERFORMANCE ASSUMING FROZEN COMPOSITION

 Pin =   617.2 PSIA
 CASE = _______________

             REACTANT                    WT FRACTION      ENERGY      TEMP
                                          (SEE NOTE)     KJ/KG-MOL      K  
 FUEL        paraffin                     1.0000000  -1860600.000    298.150
 OXIDANT     N2O                          1.0000000         0.000      0.000

 O/F=   24.50000  %FUEL=  3.921569  R,EQ.RATIO= 0.373001  PHI,EQ.RATIO= 0.373001

                 CHAMBER   THROAT     EXIT
 Pinf/P            1.0000   1.8211   28.020
 P, BAR            42.556   23.368   1.5188
 T, K             1669.84  1466.01   779.53
 RHO, KG/CU M    9.0263 0 5.6456 0 6.9006-1
 H, KJ/KG         -72.836  -337.89 -1181.63
 U, KJ/KG         -544.31  -751.81 -1401.73
 G, KJ/KG        -13196.4 -11859.5 -7308.11
 S, KJ/(KG)(K)     7.8592   7.8592   7.8592

 M, (1/n)          29.448   29.448   29.448
 Cp, KJ/(KG)(K)    1.3119   1.2881   1.1525
 GAMMAs            1.2742   1.2807   1.3245
 SON VEL,M/SEC      775.1    728.1    539.9
 MACH NUMBER        0.000    1.000    2.758

 PERFORMANCE PARAMETERS

 Ae/At                      1.0000   4.0000
 CSTAR, M/SEC               1035.3   1035.3
 CF                         0.7032   1.4384
 Ivac, M/SEC                1296.6   1637.0
 Isp, M/SEC                  728.1   1489.2

 MASS FRACTIONS

 *CO2            0.12576   H2O             0.04369   *NO             0.00232
 NO2             0.00008   *N2             0.61042   *OH             0.00006
 *O2             0.21766

  * THERMODYNAMIC PROPERTIES FITTED TO 20000.K

 NOTE. WEIGHT FRACTION OF FUEL IN TOTAL FUELS AND OF OXIDANT IN TOTAL OXIDANTS

           THEORETICAL ROCKET PERFORMANCE ASSUMING FROZEN COMPOSITION

 Pin =   631.9 PSIA
 CASE = _______________

             REACTANT                    WT FRACTION      ENERGY      TEMP
                                          (SEE NOTE)     KJ/KG-MOL      K  
 FUEL        paraffin                     1.0000000  -1860600.000    298.150
 OXIDANT     N2O                          1.0000000         0.000      0.000

 O/F=   24.50000  %FUEL=  3.921569  R,EQ.RATIO= 0.373001  PHI,EQ.RATIO= 0.373001

                 CHAMBER   THROAT     EXIT
 Pinf/P            1.0000   1.8211   28.020
 P, BAR            43.570   23.925   1.5550
 T, K             1669.84  1466.01   779.53
 RHO, KG/CU M    9.2412 0 5.7800 0 7.0649-1
 H, KJ/KG         -72.836  -337.89 -1181.64
 U, KJ/KG         -544.31  -751.81 -1401.73
 G, KJ/KG        -13185.3 -11849.8 -7302.95
 S, KJ/(KG)(K)     7.8525   7.8525   7.8525

 M, (1/n)          29.448   29.448   29.448
 Cp, KJ/(KG)(K)    1.3119   1.2881   1.1525
 GAMMAs            1.2742   1.2807   1.3245
 SON VEL,M/SEC      775.1    728.1    539.9
 MACH NUMBER        0.000    1.000    2.758

 PERFORMANCE PARAMETERS

 Ae/At                      1.0000   4.0000
 CSTAR, M/SEC               1035.3   1035.3
 CF                         0.7032   1.4384
 Ivac, M/SEC                1296.6   1637.0
 Isp, M/SEC                  728.1   1489.2

 MASS FRACTIONS

 *CO2            0.12576   H2O             0.04369   *NO             0.00232
 NO2             0.00008   *N2             0.61042   *OH             0.00006
 *O2             0.21766

  * THERMODYNAMIC PROPERTIES FITTED TO 20000.K

 NOTE. WEIGHT FRACTION OF FUEL IN TOTAL FUELS AND OF OXIDANT IN TOTAL OXIDANTS

           THEORETICAL ROCKET PERFORMANCE ASSUMING FROZEN COMPOSITION

 Pin =   646.6 PSIA
 CASE = _______________

             REACTANT                    WT FRACTION      ENERGY      TEMP
                                          (SEE NOTE)     KJ/KG-MOL      K  
 FUEL        paraffin                     1.0000000  -1860600.000    298.150
 OXIDANT     N2O                          1.0000000         0.000      0.000

 O/F=   24.50000  %FUEL=  3.921569  R,EQ.RATIO= 0.373001  PHI,EQ.RATIO= 0.373001

                 CHAMBER   THROAT     EXIT
 Pinf/P            1.0000   1.8211   28.020
 P, BAR            44.583   24.481   1.5911
 T, K             1669.84  1466.02   779.53
 RHO, KG/CU M    9.4561 0 5.9144 0 7.2292-1
 H, KJ/KG         -72.836  -337.89 -1181.64
 U, KJ/KG         -544.31  -751.81 -1401.73
 G, KJ/KG        -13174.5 -11840.3 -7297.90
 S, KJ/(KG)(K)     7.8460   7.8460   7.8460

 M, (1/n)          29.448   29.448   29.448
 Cp, KJ/(KG)(K)    1.3119   1.2881   1.1525
 GAMMAs            1.2742   1.2807   1.3245
 SON VEL,M/SEC      775.1    728.1    539.9
 MACH NUMBER        0.000    1.000    2.758

 PERFORMANCE PARAMETERS

 Ae/At                      1.0000   4.0000
 CSTAR, M/SEC               1035.3   1035.3
 CF                         0.7032   1.4384
 Ivac, M/SEC                1296.6   1637.0
 Isp, M/SEC                  728.1   1489.2

 MASS FRACTIONS

 *CO2            0.12576   H2O             0.04369   *NO             0.00232
 NO2             0.00008   *N2             0.61042   *OH             0.00006
 *O2             0.21766

  * THERMODYNAMIC PROPERTIES FITTED TO 20000.K

 NOTE. WEIGHT FRACTION OF FUEL IN TOTAL FUELS AND OF OXIDANT IN TOTAL OXIDANTS

           THEORETICAL ROCKET PERFORMANCE ASSUMING FROZEN COMPOSITION

 Pin =   661.3 PSIA
 CASE = _______________

             REACTANT                    WT FRACTION      ENERGY      TEMP
                                          (SEE NOTE)     KJ/KG-MOL      K  
 FUEL        paraffin                     1.0000000  -1860600.000    298.150
 OXIDANT     N2O                          1.0000000         0.000      0.000

 O/F=   24.50000  %FUEL=  3.921569  R,EQ.RATIO= 0.373001  PHI,EQ.RATIO= 0.373001

                 CHAMBER   THROAT     EXIT
 Pinf/P            1.0000   1.8211   28.020
 P, BAR            45.596   25.037   1.6273
 T, K             1669.84  1466.02   779.54
 RHO, KG/CU M    9.6710 0 6.0488 0 7.3935-1
 H, KJ/KG         -72.836  -337.89 -1181.64
 U, KJ/KG         -544.31  -751.81 -1401.74
 G, KJ/KG        -13163.9 -11831.0 -7292.97
 S, KJ/(KG)(K)     7.8397   7.8397   7.8397

 M, (1/n)          29.448   29.448   29.448
 Cp, KJ/(KG)(K)    1.3119   1.2881   1.1525
 GAMMAs            1.2742   1.2807   1.3245
 SON VEL,M/SEC      775.1    728.1    539.9
 MACH NUMBER        0.000    1.000    2.758

 PERFORMANCE PARAMETERS

 Ae/At                      1.0000   4.0000
 CSTAR, M/SEC               1035.3   1035.3
 CF                         0.7032   1.4384
 Ivac, M/SEC                1296.6   1637.0
 Isp, M/SEC                  728.1   1489.2

 MASS FRACTIONS

 *CO2            0.12576   H2O             0.04369   *NO             0.00232
 NO2             0.00008   *N2             0.61042   *OH             0.00006
 *O2             0.21766

  * THERMODYNAMIC PROPERTIES FITTED TO 20000.K

 NOTE. WEIGHT FRACTION OF FUEL IN TOTAL FUELS AND OF OXIDANT IN TOTAL OXIDANTS

           THEORETICAL ROCKET PERFORMANCE ASSUMING FROZEN COMPOSITION

 Pin =   676.0 PSIA
 CASE = _______________

             REACTANT                    WT FRACTION      ENERGY      TEMP
                                          (SEE NOTE)     KJ/KG-MOL      K  
 FUEL        paraffin                     1.0000000  -1860600.000    298.150
 OXIDANT     N2O                          1.0000000         0.000      0.000

 O/F=   24.50000  %FUEL=  3.921569  R,EQ.RATIO= 0.373001  PHI,EQ.RATIO= 0.373001

                 CHAMBER   THROAT     EXIT
 Pinf/P            1.0000   1.8211   28.020
 P, BAR            46.609   25.594   1.6635
 T, K             1669.85  1466.02   779.54
 RHO, KG/CU M    9.8859 0 6.1832 0 7.5578-1
 H, KJ/KG         -72.836  -337.89 -1181.64
 U, KJ/KG         -544.31  -751.81 -1401.74
 G, KJ/KG        -13153.6 -11822.0 -7288.14
 S, KJ/(KG)(K)     7.8335   7.8335   7.8335

 M, (1/n)          29.448   29.448   29.448
 Cp, KJ/(KG)(K)    1.3119   1.2881   1.1525
 GAMMAs            1.2742   1.2807   1.3245
 SON VEL,M/SEC      775.1    728.1    539.9
 MACH NUMBER        0.000    1.000    2.758

 PERFORMANCE PARAMETERS

 Ae/At                      1.0000   4.0000
 CSTAR, M/SEC               1035.3   1035.3
 CF                         0.7032   1.4384
 Ivac, M/SEC                1296.6   1637.0
 Isp, M/SEC                  728.1   1489.2

 MASS FRACTIONS

 *CO2            0.12576   H2O             0.04369   *NO             0.00232
 NO2             0.00008   *N2             0.61042   *OH             0.00006
 *O2             0.21766

  * THERMODYNAMIC PROPERTIES FITTED TO 20000.K

 NOTE. WEIGHT FRACTION OF FUEL IN TOTAL FUELS AND OF OXIDANT IN TOTAL OXIDANTS

           THEORETICAL ROCKET PERFORMANCE ASSUMING FROZEN COMPOSITION

 Pin =   690.7 PSIA
 CASE = _______________

             REACTANT                    WT FRACTION      ENERGY      TEMP
                                          (SEE NOTE)     KJ/KG-MOL      K  
 FUEL        paraffin                     1.0000000  -1860600.000    298.150
 OXIDANT     N2O                          1.0000000         0.000      0.000

 O/F=   24.50000  %FUEL=  3.921569  R,EQ.RATIO= 0.373001  PHI,EQ.RATIO= 0.373001

                 CHAMBER   THROAT     EXIT
 Pinf/P            1.0000   1.8211   28.020
 P, BAR            47.623   26.150   1.6996
 T, K             1669.85  1466.02   779.54
 RHO, KG/CU M    1.0101 1 6.3176 0 7.7221-1
 H, KJ/KG         -72.836  -337.89 -1181.64
 U, KJ/KG         -544.31  -751.81 -1401.74
[...]
 OXIDANT     N2O                          1.0000000         0.000      0.000

 O/F=    2.00000  %FUEL= 33.333333  R,EQ.RATIO= 4.569263  PHI,EQ.RATIO= 4.569263

                 CHAMBER   THROAT     EXIT
 Pinf/P            1.0000   1.8088   27.095
 P, BAR            38.504   21.286   1.4211
 T, K             1255.05  1112.19   612.74
 RHO, KG/CU M    8.0184 0 5.0022 0 6.0616-1
 H, KJ/KG         -619.11  -887.26 -1760.44
 U, KJ/KG        -1099.30 -1312.79 -1994.88
 G, KJ/KG        -12626.0 -11527.4 -7622.42
 S, KJ/(KG)(K)     9.5668   9.5668   9.5668

 M, (1/n)          21.731   21.731   21.731
 MW, MOL WT        17.807   17.807   17.807
 Cp, KJ/(KG)(K)    1.9006   1.8525   1.6283
 GAMMAs            1.2521   1.2603   1.3072
 SON VEL,M/SEC      775.4    732.3    553.6
 MACH NUMBER        0.000    1.000    2.729

 PERFORMANCE PARAMETERS

 Ae/At                      1.0000   4.0000
 CSTAR, M/SEC               1051.1   1051.1
 CF                         0.6967   1.4374
 Ivac, M/SEC                1313.4   1666.0
 Isp, M/SEC                  732.3   1510.9

 MASS FRACTIONS

 CH4             0.03112   *CO             0.31516   *CO2            0.04207
 C2H4            0.00001   C2H6            0.00001   HCN             0.00006
 *H2             0.02968   H2O             0.03573   NH3             0.00047
 *N2             0.42390   C(gr)           0.12178

  * THERMODYNAMIC PROPERTIES FITTED TO 20000.K

 NOTE. WEIGHT FRACTION OF FUEL IN TOTAL FUELS AND OF OXIDANT IN TOTAL OXIDANTS

           THEORETICAL ROCKET PERFORMANCE ASSUMING FROZEN COMPOSITION

 Pin =   573.1 PSIA
 CASE = _______________

             REACTANT                    WT FRACTION      ENERGY      TEMP
                                          (SEE NOTE)     KJ/KG-MOL      K  
 FUEL        paraffin                     1.0000000  -1860600.000    298.150
 OXIDANT     N2O                          1.0000000         0.000      0.000

 O/F=    2.00000  %FUEL= 33.333333  R,EQ.RATIO= 4.569263  PHI,EQ.RATIO= 4.569263

                 CHAMBER   THROAT     EXIT
 Pinf/P            1.0000   1.8087   27.078
 P, BAR            39.517   21.849   1.4594
 T, K             1256.75  1113.85   614.04
 RHO, KG/CU M    8.2235 0 5.1301 0 6.2157-1
 H, KJ/KG         -619.11  -887.42 -1761.43
 U, KJ/KG        -1099.64 -1313.31 -1996.22
 G, KJ/KG        -12629.7 -11532.4 -7629.77
 S, KJ/(KG)(K)     9.5569   9.5569   9.5569

 M, (1/n)          21.745   21.745   21.745
 MW, MOL WT        17.819   17.819   17.819
 Cp, KJ/(KG)(K)    1.9011   1.8531   1.6285
 GAMMAs            1.2518   1.2600   1.3068
 SON VEL,M/SEC      775.6    732.5    553.9
 MACH NUMBER        0.000    1.000    2.729

 PERFORMANCE PARAMETERS

 Ae/At                      1.0000   4.0000
 CSTAR, M/SEC               1051.5   1051.5
 CF                         0.6966   1.4374
 Ivac, M/SEC                1313.9   1666.8
 Isp, M/SEC                  732.5   1511.5

 MASS FRACTIONS

 CH4             0.03139   *CO             0.31477   *CO2            0.04217
 C2H4            0.00001   C2H6            0.00001   HCN             0.00007
 *H2             0.02959   H2O             0.03590   NH3             0.00048
 *N2             0.42389   C(gr)           0.12171

  * THERMODYNAMIC PROPERTIES FITTED TO 20000.K

 NOTE. WEIGHT FRACTION OF FUEL IN TOTAL FUELS AND OF OXIDANT IN TOTAL OXIDANTS

           THEORETICAL ROCKET PERFORMANCE ASSUMING FROZEN COMPOSITION

 Pin =   587.8 PSIA
 CASE = _______________

             REACTANT                    WT FRACTION      ENERGY      TEMP
                                          (SEE NOTE)     KJ/KG-MOL      K  
 FUEL        paraffin                     1.0000000  -1860600.000    298.150
 OXIDANT     N2O                          1.0000000         0.000      0.000

 O/F=    2.00000  %FUEL= 33.333333  R,EQ.RATIO= 4.569263  PHI,EQ.RATIO= 4.569263

                 CHAMBER   THROAT     EXIT
 Pinf/P            1.0000   1.8085   27.062
 P, BAR            40.530   22.411   1.4977
 T, K             1258.41  1115.47   615.32
 RHO, KG/CU M    8.4285 0 5.2578 0 6.3696-1
 H, KJ/KG         -619.11  -887.58 -1762.40
 U, KJ/KG        -1099.98 -1313.83 -1997.53
 G, KJ/KG        -12633.5 -11537.2 -7636.97
 S, KJ/(KG)(K)     9.5472   9.5472   9.5472

 M, (1/n)          21.759   21.759   21.759
 MW, MOL WT        17.829   17.829   17.829
 Cp, KJ/(KG)(K)    1.9016   1.8536   1.6288
 GAMMAs            1.2515   1.2597   1.3065
 SON VEL,M/SEC      775.8    732.8    554.3
 MACH NUMBER        0.000    1.000    2.728

 PERFORMANCE PARAMETERS

 Ae/At                      1.0000   4.0000
 CSTAR, M/SEC               1052.0   1052.0
 CF                         0.6965   1.4374
 Ivac, M/SEC                1314.5   1667.6
 Isp, M/SEC                  732.8   1512.1

 MASS FRACTIONS

 CH4             0.03166   *CO             0.31439   *CO2            0.04226
 C2H4            0.00001   C2H6            0.00001   HCN             0.00007
 *H2             0.02950   H2O             0.03607   NH3             0.00048
 *N2             0.42389   C(gr)           0.12165

  * THERMODYNAMIC PROPERTIES FITTED TO 20000.K

 NOTE. WEIGHT FRACTION OF FUEL IN TOTAL FUELS AND OF OXIDANT IN TOTAL OXIDANTS

           THEORETICAL ROCKET PERFORMANCE ASSUMING FROZEN COMPOSITION

 Pin =   602.5 PSIA
 CASE = _______________

             REACTANT                    WT FRACTION      ENERGY      TEMP
                                          (SEE NOTE)     KJ/KG-MOL      K  
 FUEL        paraffin                     1.0000000  -1860600.000    298.150
 OXIDANT     N2O                          1.0000000         0.000      0.000

 O/F=    2.00000  %FUEL= 33.333333  R,EQ.RATIO= 4.569263  PHI,EQ.RATIO= 4.569263

                 CHAMBER   THROAT     EXIT
 Pinf/P            1.0000   1.8083   27.046
 P, BAR            41.543   22.974   1.5360
 T, K             1260.04  1117.05   616.57
 RHO, KG/CU M    8.6333 0 5.3854 0 6.5234-1
 H, KJ/KG         -619.11  -887.73 -1763.34
 U, KJ/KG        -1100.30 -1314.32 -1998.80
 G, KJ/KG        -12637.1 -11541.9 -7644.01
 S, KJ/(KG)(K)     9.5378   9.5378   9.5378

 M, (1/n)          21.772   21.772   21.772
 MW, MOL WT        17.840   17.840   17.840
 Cp, KJ/(KG)(K)    1.9021   1.8541   1.6291
 GAMMAs            1.2512   1.2594   1.3062
 SON VEL,M/SEC      775.9    733.0    554.6
 MACH NUMBER        0.000    1.000    2.728

 PERFORMANCE PARAMETERS

 Ae/At                      1.0000   4.0000
 CSTAR, M/SEC               1052.4   1052.4
 CF                         0.6965   1.4374
 Ivac, M/SEC                1315.0   1668.4
 Isp, M/SEC                  733.0   1512.8

 MASS FRACTIONS

 CH4             0.03193   *CO             0.31402   *CO2            0.04236
 C2H4            0.00001   C2H6            0.00001   HCN             0.00007
 *H2             0.02942   H2O             0.03623   NH3             0.00049
 *N2             0.42388   C(gr)           0.12158

  * THERMODYNAMIC PROPERTIES FITTED TO 20000.K

 NOTE. WEIGHT FRACTION OF FUEL IN TOTAL FUELS AND OF OXIDANT IN TOTAL OXIDANTS

           THEORETICAL ROCKET PERFORMANCE ASSUMING FROZEN COMPOSITION

 Pin =   617.2 PSIA
 CASE = _______________

             REACTANT                    WT FRACTION      ENERGY      TEMP
                                          (SEE NOTE)     KJ/KG-MOL      K  
 FUEL        paraffin                     1.0000000  -1860600.000    298.150
 OXIDANT     N2O                          1.0000000         0.000      0.000

 O/F=    2.00000  %FUEL= 33.333333  R,EQ.RATIO= 4.569263  PHI,EQ.RATIO= 4.569263

                 CHAMBER   THROAT     EXIT
 Pinf/P            1.0000   1.8081   27.031
 P, BAR            42.556   23.536   1.5744
 T, K             1261.63  1118.60   617.79
 RHO, KG/CU M    8.8380 0 5.5129 0 6.6771-1
 H, KJ/KG         -619.11  -887.88 -1764.26
 U, KJ/KG        -1100.62 -1314.81 -2000.05
 G, KJ/KG        -12640.6 -11546.5 -7650.91
 S, KJ/(KG)(K)     9.5286   9.5286   9.5286

 M, (1/n)          21.785   21.785   21.785
 MW, MOL WT        17.851   17.851   17.851
 Cp, KJ/(KG)(K)    1.9027   1.8546   1.6293
 GAMMAs            1.2509   1.2591   1.3059
 SON VEL,M/SEC      776.1    733.2    554.9
 MACH NUMBER        0.000    1.000    2.727

 PERFORMANCE PARAMETERS

 Ae/At                      1.0000   4.0000
 CSTAR, M/SEC               1052.9   1052.9
 CF                         0.6964   1.4374
 Ivac, M/SEC                1315.5   1669.2
 Isp, M/SEC                  733.2   1513.4

 MASS FRACTIONS

 CH4             0.03219   *CO             0.31365   *CO2            0.04245
 C2H4            0.00001   C2H6            0.00001   HCN             0.00007
 *H2             0.02933   H2O             0.03639   NH3             0.00050
 *N2             0.42387   C(gr)           0.12152

  * THERMODYNAMIC PROPERTIES FITTED TO 20000.K

 NOTE. WEIGHT FRACTION OF FUEL IN TOTAL FUELS AND OF OXIDANT IN TOTAL OXIDANTS

           THEORETICAL ROCKET PERFORMANCE ASSUMING FROZEN COMPOSITION

 Pin =   631.9 PSIA
 CASE = _______________

             REACTANT                    WT FRACTION      ENERGY      TEMP
                                          (SEE NOTE)     KJ/KG-MOL      K  
 FUEL        paraffin                     1.0000000  -1860600.000    298.150
 OXIDANT     N2O                          1.0000000         0.000      0.000

 O/F=    2.00000  %FUEL= 33.333333  R,EQ.RATIO= 4.569263  PHI,EQ.RATIO= 4.569263

                 CHAMBER   THROAT     EXIT
 Pinf/P            1.0000   1.8080   27.016
 P, BAR            43.570   24.099   1.6128
 T, K             1263.18  1120.11   618.99
 RHO, KG/CU M    9.0426 0 5.6404 0 6.8307-1
 H, KJ/KG         -619.11  -888.03 -1765.16
 U, KJ/KG        -1100.93 -1315.28 -2001.27
 G, KJ/KG        -12644.1 -11551.1 -7657.68
 S, KJ/(KG)(K)     9.5196   9.5196   9.5196

 M, (1/n)          21.798   21.798   21.798
 MW, MOL WT        17.861   17.861   17.861
 Cp, KJ/(KG)(K)    1.9032   1.8551   1.6296
 GAMMAs            1.2507   1.2588   1.3056
 SON VEL,M/SEC      776.3    733.4    555.2
 MACH NUMBER        0.000    1.000    2.727

 PERFORMANCE PARAMETERS

 Ae/At                      1.0000   4.0000
 CSTAR, M/SEC               1053.3   1053.3
 CF                         0.6963   1.4374
 Ivac, M/SEC                1316.0   1669.9
 Isp, M/SEC                  733.4   1514.0

 MASS FRACTIONS

 CH4             0.03244   *CO             0.31330   *CO2            0.04254
 C2H4            0.00001   C2H6            0.00001   HCN             0.00007
 *H2             0.02925   H2O             0.03654   NH3             0.00050
 *N2             0.42387   C(gr)           0.12145

  * THERMODYNAMIC PROPERTIES FITTED TO 20000.K

 NOTE. WEIGHT FRACTION OF FUEL IN TOTAL FUELS AND OF OXIDANT IN TOTAL OXIDANTS

           THEORETICAL ROCKET PERFORMANCE ASSUMING FROZEN COMPOSITION

 Pin =   646.6 PSIA
 CASE = _______________

             REACTANT                    WT FRACTION      ENERGY      TEMP
                                          (SEE NOTE)     KJ/KG-MOL      K  
 FUEL        paraffin                     1.0000000  -1860600.000    298.150
 OXIDANT     N2O                          1.0000000         0.000      0.000

 O/F=    2.00000  %FUEL= 33.333333  R,EQ.RATIO= 4.569263  PHI,EQ.RATIO= 4.569263

                 CHAMBER   THROAT     EXIT
 Pinf/P            1.0000   1.8078   27.001
 P, BAR            44.583   24.662   1.6512
 T, K             1264.71  1121.60   620.16
 RHO, KG/CU M    9.2471 0 5.7678 0 6.9841-1
 H, KJ/KG         -619.11  -888.17 -1766.04
 U, KJ/KG        -1101.24 -1315.75 -2002.46
 G, KJ/KG        -12647.5 -11555.5 -7664.31
 S, KJ/(KG)(K)     9.5108   9.5108   9.5108

 M, (1/n)          21.810   21.810   21.810
 MW, MOL WT        17.871   17.871   17.871
 Cp, KJ/(KG)(K)    1.9036   1.8556   1.6298
 GAMMAs            1.2504   1.2586   1.3053
 SON VEL,M/SEC      776.4    733.6    555.5
 MACH NUMBER        0.000    1.000    2.726

 PERFORMANCE PARAMETERS

 Ae/At                      1.0000   4.0000
 CSTAR, M/SEC               1053.7   1053.7
 CF                         0.6962   1.4374
 Ivac, M/SEC                1316.4   1670.6
 Isp, M/SEC                  733.6   1514.6

 MASS FRACTIONS

 CH4             0.03269   *CO             0.31295   *CO2            0.04263
 C2H4            0.00001   C2H6            0.00001   HCN             0.00007
 *H2             0.02917   H2O             0.03669   NH3             0.00051
 *N2             0.42386   C(gr)           0.12139

  * THERMODYNAMIC PROPERTIES FITTED TO 20000.K

 NOTE. WEIGHT FRACTION OF FUEL IN TOTAL FUELS AND OF OXIDANT IN TOTAL OXIDANTS

           THEORETICAL ROCKET PERFORMANCE ASSUMING FROZEN COMPOSITION

 Pin =   661.3 PSIA
 CASE = _______________

             REACTANT                    WT FRACTION      ENERGY      TEMP
                                          (SEE NOTE)     KJ/KG-MOL      K  
 FUEL        paraffin                     1.0000000  -1860600.000    298.150
 OXIDANT     N2O                          1.0000000         0.000      0.000

 O/F=    2.00000  %FUEL= 33.333333  R,EQ.RATIO= 4.569263  PHI,EQ.RATIO= 4.569263

                 CHAMBER   THROAT     EXIT
 Pinf/P            1.0000   1.8076   26.986
 P, BAR            45.596   25.224   1.6896
 T, K             1266.20  1123.05   621.32
 RHO, KG/CU M    9.4514 0 5.8951 0 7.1374-1
 H, KJ/KG         -619.11  -888.31 -1766.90
 U, KJ/KG        -1101.53 -1316.20 -2003.62
 G, KJ/KG        -12650.9 -11559.8 -7670.81
 S, KJ/(KG)(K)     9.5023   9.5023   9.5023

 M, (1/n)          21.823   21.823   21.823
 MW, MOL WT        17.881   17.881   17.881
 Cp, KJ/(KG)(K)    1.9041   1.8560   1.6301
 GAMMAs            1.2501   1.2583   1.3050
 SON VEL,M/SEC      776.6    733.8    555.8
 MACH NUMBER        0.000    1.000    2.726

 PERFORMANCE PARAMETERS

 Ae/At                      1.0000   4.0000
 CSTAR, M/SEC               1054.1   1054.1
 CF                         0.6961   1.4374
 Ivac, M/SEC                1316.9   1671.4
 Isp, M/SEC                  733.8   1515.1

 MASS FRACTIONS

 CH4             0.03294   *CO             0.31261   *CO2            0.04272
 C2H4            0.00001   C2H6            0.00001   HCN             0.00007
 *H2             0.02909   H2O             0.03684   NH3             0.00052
 *N2             0.42386   C(gr)           0.12133

  * THERMODYNAMIC PROPERTIES FITTED TO 20000.K

 NOTE. WEIGHT FRACTION OF FUEL IN TOTAL FUELS AND OF OXIDANT IN TOTAL OXIDANTS

           THEORETICAL ROCKET PERFORMANCE ASSUMING FROZEN COMPOSITION

 Pin =   676.0 PSIA
 CASE = _______________

             REACTANT                    WT FRACTION      ENERGY      TEMP
                                          (SEE NOTE)     KJ/KG-MOL      K  
 FUEL        paraffin                     1.0000000  -1860600.000    298.150
 OXIDANT     N2O                          1.0000000         0.000      0.000

 O/F=    2.00000  %FUEL= 33.333333  R,EQ.RATIO= 4.569263  PHI,EQ.RATIO= 4.569263

                 CHAMBER   THROAT     EXIT
 Pinf/P            1.0000   1.8075   26.972
 P, BAR            46.609   25.787   1.7281
 T, K             1267.66  1124.48   622.45
 RHO, KG/CU M    9.6556 0 6.0223 0 7.2907-1
 H, KJ/KG         -619.11  -888.45 -1767.74
 U, KJ/KG        -1101.82 -1316.64 -2004.76
 G, KJ/KG        -12654.2 -11564.1 -7677.19
 S, KJ/(KG)(K)     9.4939   9.4939   9.4939

 M, (1/n)          21.835   21.835   21.835
 MW, MOL WT        17.891   17.891   17.891
 Cp, KJ/(KG)(K)    1.9046   1.8565   1.6303
 GAMMAs            1.2499   1.2580   1.3048
 SON VEL,M/SEC      776.8    734.0    556.1
 MACH NUMBER        0.000    1.000    2.725

 PERFORMANCE PARAMETERS

 Ae/At                      1.0000   4.0000
 CSTAR, M/SEC               1054.5   1054.5
 CF                         0.6960   1.4373
 Ivac, M/SEC                1317.4   1672.1
 Isp, M/SEC                  734.0   1515.7

 MASS FRACTIONS

 CH4             0.03318   *CO             0.31227   *CO2            0.04280
 C2H4            0.00001   C2H6            0.00001   HCN             0.00007
 HNCO            0.00001   *H2             0.02901   H2O             0.03699
 NH3             0.00052   *N2             0.42385   C(gr)           0.12127

  * THERMODYNAMIC PROPERTIES FITTED TO 20000.K

 NOTE. WEIGHT FRACTION OF FUEL IN TOTAL FUELS AND OF OXIDANT IN TOTAL OXIDANTS

           THEORETICAL ROCKET PERFORMANCE ASSUMING FROZEN COMPOSITION

 Pin =   690.7 PSIA
 CASE = _______________

             REACTANT                    WT FRACTION      ENERGY      TEMP
                                          (SEE NOTE)     KJ/KG-MOL      K  
 FUEL        paraffin                     1.0000000  -1860600.000    298.150
 OXIDANT     N2O                          1.0000000         0.000      0.000

 O/F=    2.00000  %FUEL= 33.333333  R,EQ.RATIO= 4.569263  PHI,EQ.RATIO= 4.569263

                 CHAMBER   THROAT     EXIT
 Pinf/P            1.0000   1.8073   26.958
 P, BAR            47.623   26.350   1.7665
 T, K             1269.10  1125.87   623.56
 RHO, KG/CU M    9.8598 0 6.1495 0 7.4438-1
 H, KJ/KG         -619.11  -888.58 -1768.56
 U, KJ/KG        -1102.11 -1317.08 -2005.88
 G, KJ/KG        -12657.4 -11568.3 -7683.45
 S, KJ/(KG)(K)     9.4857   9.4857   9.4857

 M, (1/n)          21.847   21.847   21.847
 MW, MOL WT        17.900   17.900   17.900
 Cp, KJ/(KG)(K)    1.9051   1.8569   1.6305
 GAMMAs            1.2497   1.2578   1.3045
 SON VEL,M/SEC      776.9    734.1    556.4
 MACH NUMBER        0.000    1.000    2.725

 PERFORMANCE PARAMETERS

 Ae/At                      1.0000   4.0000
 CSTAR, M/SEC               1054.9   1054.9
 CF                         0.6959   1.4373
 Ivac, M/SEC                1317.8   1672.7
 Isp, M/SEC                  734.1   1516.2

 MASS FRACTIONS

 CH4             0.03341   *CO             0.31195   *CO2            0.04289
 C2H4            0.00001   C2H6            0.00001   HCN             0.00007
 HNCO            0.00001   *H2             0.02894   H2O             0.03713
 NH3             0.00053   *N2             0.42385   C(gr)           0.12121

  * THERMODYNAMIC PROPERTIES FITTED TO 20000.K

 NOTE. WEIGHT FRACTION OF FUEL IN TOTAL FUELS AND OF OXIDANT IN TOTAL OXIDANTS

           THEORETICAL ROCKET PERFORMANCE ASSUMING FROZEN COMPOSITION

 Pin =   705.4 PSIA
 CASE = _______________

             REACTANT                    WT FRACTION      ENERGY      TEMP
                                          (SEE NOTE)     KJ/KG-MOL      K  
 FUEL        paraffin                     1.0000000  -1860600.000    298.150
 OXIDANT     N2O                          1.0000000         0.000      0.000

 O/F=    2.00000  %FUEL= 33.333333  R,EQ.RATIO= 4.569263  PHI,EQ.RATIO= 4.569263

                 CHAMBER   THROAT     EXIT
 Pinf/P            1.0000   1.8072   26.945
 P, BAR            48.636   26.913   1.8050
 T, K             1270.50  1127.25   624.65
 RHO, KG/CU M    1.0064 1 6.2765 0 7.5968-1
 H, KJ/KG         -619.11  -888.71 -1769.36
 U, KJ/KG        -1102.39 -1317.50 -2006.97
 G, KJ/KG        -12660.6 -11572.4 -7689.60
 S, KJ/(KG)(K)     9.4777   9.4777   9.4777

 M, (1/n)          21.858   21.858   21.858
 MW, MOL WT        17.910   17.910   17.910
 Cp, KJ/(KG)(K)    1.9055   1.8574   1.6308
 GAMMAs            1.2494   1.2575   1.3042
 SON VEL,M/SEC      777.1    734.3    556.7
 MACH NUMBER        0.000    1.000    2.725

 PERFORMANCE PARAMETERS

 Ae/At                      1.0000   4.0000
 CSTAR, M/SEC               1055.3   1055.3
 CF                         0.6959   1.4373
 Ivac, M/SEC                1318.2   1673.4
 Isp, M/SEC                  734.3   1516.7

 MASS FRACTIONS

 CH4             0.03364   *CO             0.31163   *CO2            0.04297
 C2H4            0.00001   C2H6            0.00001   HCN             0.00007
 HNCO            0.00001   *H2             0.02886   H2O             0.03727
 NH3             0.00054   *N2             0.42384   C(gr)           0.12115

  * THERMODYNAMIC PROPERTIES FITTED TO 20000.K

 NOTE. WEIGHT FRACTION OF FUEL IN TOTAL FUELS AND OF OXIDANT IN TOTAL OXIDANTS