         NASA-GLENN CHEMICAL EQUILIBRIUM PROGRAM CEA2, FEBRUARY 5, 2004
                   BY  BONNIE MCBRIDE AND SANFORD GORDON
      REFS: NASA RP-1311, PART I, 1994 AND NASA RP-1311, PART II, 1996

 *******************************************************************************

  
 ### CEA analysis performed on Tue 12-Oct-2021 14:54:20
  
 # Problem Type: "Rocket" (Infinite Area Combustor)
  
 prob case=_______________1570 ro frozen
  
 # Pressure (24 values):
 p,atm= 1, 2, 3, 4, 5, 6, 7, 8, 9, 10, 11, 12, 13, 14, 15, 16, 17, 18, 19, 20, 21
 , 22, 23, 24
 # Supersonic Area Ratio (1 value):
 supar= 4
  
 # Oxidizer/Fuel Wt. ratio (31 values):
 o/f= 6.3, 6.5, 6.7, 6.9, 7.1, 7.3, 7.5, 7.7, 7.9, 8.1, 8.3, 8.5, 8.7, 8.9, 9.1, 
 9.3, 9.5, 9.7, 9.9, 10.1, 10.3, 10.5, 10.7, 10.9, 11
  
 # You selected the following fuels and oxidizers:
 reac
 fuel paraffin          wt%=100.0000
 oxid N2O               wt%=100.0000
  
 # You selected these options for output:
 # short version of output
 output short
 # Proportions of any products will be expressed as Mass Fractions.
 output massf
 # Heat will be expressed as siunits
 output siunits
  
 # Input prepared by this script:/var/www/sites/cearun.grc.nasa.gov/cgi-bin/CEARU
 N/prepareInputFile.cgi
  
 ### IMPORTANT:  The following line is the end of your CEA input file!
 end

           THEORETICAL ROCKET PERFORMANCE ASSUMING FROZEN COMPOSITION

 Pin =    14.7 PSIA
 CASE = _______________

             REACTANT                    WT FRACTION      ENERGY      TEMP
                                          (SEE NOTE)     KJ/KG-MOL      K  
 FUEL        paraffin                     1.0000000  -1860600.000    298.150
 OXIDANT     N2O                          1.0000000         0.000      0.000

 O/F=    6.30000  %FUEL= 13.698630  R,EQ.RATIO= 1.450560  PHI,EQ.RATIO= 1.450560

                 CHAMBER   THROAT     EXIT
 Pinf/P            1.0000   1.8050   26.289
 P, BAR            1.0132  0.56135  0.03854
 T, K             2523.40  2240.36  1272.17
 RHO, KG/CU M    1.2602-1 7.8639-2 9.5088-3
 H, KJ/KG         -254.43  -702.16 -2168.35
 U, KJ/KG        -1058.44 -1415.98 -2573.69
 G, KJ/KG        -27024.6 -24469.6 -15664.5
 S, KJ/(KG)(K)    10.6088  10.6088  10.6088

 M, (1/n)          26.095   26.095   26.095
 Cp, KJ/(KG)(K)    1.5921   1.5708   1.4371
 GAMMAs            1.2502   1.2545   1.2849
 SON VEL,M/SEC     1002.6    946.3    721.7
 MACH NUMBER        0.000    1.000    2.711

 PERFORMANCE PARAMETERS

 Ae/At                      1.0000   4.0000
 CSTAR, M/SEC               1361.6   1361.6
 CF                         0.6950   1.4369
 Ivac, M/SEC                1700.6   2163.7
 Isp, M/SEC                  946.3   1956.5

 MASS FRACTIONS

 *CO             0.18990   *CO2            0.14095   *H              0.00025
 *H2             0.00421   H2O             0.11131   *NO             0.00094
 *N2             0.54885   *O              0.00019   *OH             0.00292
 *O2             0.00047

  * THERMODYNAMIC PROPERTIES FITTED TO 20000.K

 NOTE. WEIGHT FRACTION OF FUEL IN TOTAL FUELS AND OF OXIDANT IN TOTAL OXIDANTS

           THEORETICAL ROCKET PERFORMANCE ASSUMING FROZEN COMPOSITION

 Pin =    29.4 PSIA
 CASE = _______________

             REACTANT                    WT FRACTION      ENERGY      TEMP
                                          (SEE NOTE)     KJ/KG-MOL      K  
 FUEL        paraffin                     1.0000000  -1860600.000    298.150
 OXIDANT     N2O                          1.0000000         0.000      0.000

 O/F=    6.30000  %FUEL= 13.698630  R,EQ.RATIO= 1.450560  PHI,EQ.RATIO= 1.450560

                 CHAMBER   THROAT     EXIT
 Pinf/P            1.0000   1.8046   26.241
 P, BAR            2.0265   1.1230  0.07723
 T, K             2542.80  2258.34  1284.81
 RHO, KG/CU M    2.5052-1 1.5631-1 1.8895-2
 H, KJ/KG         -254.43  -704.76 -2180.73
 U, KJ/KG        -1063.34 -1423.19 -2589.45
 G, KJ/KG        -26669.3 -24164.6 -15527.5
 S, KJ/(KG)(K)    10.3881  10.3881  10.3881

 M, (1/n)          26.136   26.136   26.136
 Cp, KJ/(KG)(K)    1.5932   1.5721   1.4394
 GAMMAs            1.2495   1.2537   1.2837
 SON VEL,M/SEC     1005.3    949.0    724.4
 MACH NUMBER        0.000    1.000    2.710

 PERFORMANCE PARAMETERS

 Ae/At                      1.0000   4.0000
 CSTAR, M/SEC               1366.1   1366.1
 CF                         0.6947   1.4368
 Ivac, M/SEC                1706.0   2171.0
 Isp, M/SEC                  949.0   1962.8

 MASS FRACTIONS

 *CO             0.18974   *CO2            0.14119   *H              0.00019
 *H2             0.00420   H2O             0.11225   *NO             0.00076
 *N2             0.54894   *O              0.00012   *OH             0.00231
 *O2             0.00029

  * THERMODYNAMIC PROPERTIES FITTED TO 20000.K

 NOTE. WEIGHT FRACTION OF FUEL IN TOTAL FUELS AND OF OXIDANT IN TOTAL OXIDANTS

           THEORETICAL ROCKET PERFORMANCE ASSUMING FROZEN COMPOSITION

 Pin =    44.1 PSIA
 CASE = _______________

             REACTANT                    WT FRACTION      ENERGY      TEMP
                                          (SEE NOTE)     KJ/KG-MOL      K  
 FUEL        paraffin                     1.0000000  -1860600.000    298.150
 OXIDANT     N2O                          1.0000000         0.000      0.000

 O/F=    6.30000  %FUEL= 13.698630  R,EQ.RATIO= 1.450560  PHI,EQ.RATIO= 1.450560

                 CHAMBER   THROAT     EXIT
 Pinf/P            1.0000   1.8043   26.217
 P, BAR            3.0397   1.6847  0.11595
 T, K             2552.37  2267.21  1291.06
 RHO, KG/CU M    3.7466-1 2.3376-1 2.8252-2
 H, KJ/KG         -254.43  -706.05 -2186.82
 U, KJ/KG        -1065.76 -1426.73 -2597.21
 G, KJ/KG        -26439.5 -23965.6 -15432.0
 S, KJ/(KG)(K)    10.2591  10.2591  10.2591

 M, (1/n)          26.157   26.157   26.157
 Cp, KJ/(KG)(K)    1.5938   1.5728   1.4405
 GAMMAs            1.2491   1.2533   1.2832
 SON VEL,M/SEC     1006.7    950.4    725.7
 MACH NUMBER        0.000    1.000    2.709

 PERFORMANCE PARAMETERS

 Ae/At                      1.0000   4.0000
 CSTAR, M/SEC               1368.2   1368.2
 CF                         0.6946   1.4368
 Ivac, M/SEC                1708.7   2174.7
 Isp, M/SEC                  950.4   1965.9

 MASS FRACTIONS

 *CO             0.18967   *CO2            0.14131   *H              0.00016
 *H2             0.00420   H2O             0.11272   *NO             0.00067
 *N2             0.54898   *O              0.00009   *OH             0.00199
 *O2             0.00021

  * THERMODYNAMIC PROPERTIES FITTED TO 20000.K

 NOTE. WEIGHT FRACTION OF FUEL IN TOTAL FUELS AND OF OXIDANT IN TOTAL OXIDANTS

           THEORETICAL ROCKET PERFORMANCE ASSUMING FROZEN COMPOSITION

 Pin =    58.8 PSIA
 CASE = _______________

             REACTANT                    WT FRACTION      ENERGY      TEMP
                                          (SEE NOTE)     KJ/KG-MOL      K  
 FUEL        paraffin                     1.0000000  -1860600.000    298.150
 OXIDANT     N2O                          1.0000000         0.000      0.000

 O/F=    6.30000  %FUEL= 13.698630  R,EQ.RATIO= 1.450560  PHI,EQ.RATIO= 1.450560

                 CHAMBER   THROAT     EXIT
 Pinf/P            1.0000   1.8042   26.202
 P, BAR            4.0530   2.2465  0.15468
 T, K             2558.40  2272.80  1295.00
 RHO, KG/CU M    4.9861-1 3.1110-1 3.7595-2
 H, KJ/KG         -254.43  -706.85 -2190.66
 U, KJ/KG        -1067.28 -1428.96 -2602.11
 G, KJ/KG        -26267.6 -23816.1 -15357.9
 S, KJ/(KG)(K)    10.1677  10.1677  10.1677

 M, (1/n)          26.169   26.169   26.169
 Cp, KJ/(KG)(K)    1.5942   1.5732   1.4412
 GAMMAs            1.2489   1.2531   1.2828
 SON VEL,M/SEC     1007.6    951.2    726.5
 MACH NUMBER        0.000    1.000    2.709

 PERFORMANCE PARAMETERS

 Ae/At                      1.0000   4.0000
 CSTAR, M/SEC               1369.6   1369.6
 CF                         0.6945   1.4368
 Ivac, M/SEC                1710.4   2176.9
 Isp, M/SEC                  951.2   1967.9

 MASS FRACTIONS

 *CO             0.18963   *CO2            0.14138   *H              0.00014
 *H2             0.00419   H2O             0.11302   *NO             0.00060
 *N2             0.54901   *O              0.00007   *OH             0.00179
 *O2             0.00017

  * THERMODYNAMIC PROPERTIES FITTED TO 20000.K

 NOTE. WEIGHT FRACTION OF FUEL IN TOTAL FUELS AND OF OXIDANT IN TOTAL OXIDANTS

           THEORETICAL ROCKET PERFORMANCE ASSUMING FROZEN COMPOSITION

 Pin =    73.5 PSIA
 CASE = _______________

             REACTANT                    WT FRACTION      ENERGY      TEMP
                                          (SEE NOTE)     KJ/KG-MOL      K  
 FUEL        paraffin                     1.0000000  -1860600.000    298.150
 OXIDANT     N2O                          1.0000000         0.000      0.000

 O/F=    6.30000  %FUEL= 13.698630  R,EQ.RATIO= 1.450560  PHI,EQ.RATIO= 1.450560

                 CHAMBER   THROAT     EXIT
 Pinf/P            1.0000   1.8041   26.192
 P, BAR            5.0663   2.8082  0.19343
 T, K             2562.68  2276.77  1297.80
 RHO, KG/CU M    6.2244-1 3.8835-1 4.6927-2
 H, KJ/KG         -254.43  -707.42 -2193.38
 U, KJ/KG        -1068.36 -1430.55 -2605.57
 G, KJ/KG        -26129.4 -23695.6 -15297.0
 S, KJ/(KG)(K)    10.0968  10.0968  10.0968

 M, (1/n)          26.178   26.178   26.178
 Cp, KJ/(KG)(K)    1.5944   1.5735   1.4416
 GAMMAs            1.2487   1.2529   1.2826
 SON VEL,M/SEC     1008.2    951.8    727.1
 MACH NUMBER        0.000    1.000    2.708

 PERFORMANCE PARAMETERS

 Ae/At                      1.0000   4.0000
 CSTAR, M/SEC               1370.6   1370.6
 CF                         0.6945   1.4368
 Ivac, M/SEC                1711.5   2178.6
 Isp, M/SEC                  951.8   1969.2

 MASS FRACTIONS

 *CO             0.18960   *CO2            0.14142   *H              0.00013
 *H2             0.00419   H2O             0.11323   *NO             0.00055
 *N2             0.54903   *O              0.00006   *OH             0.00164
 *O2             0.00014

  * THERMODYNAMIC PROPERTIES FITTED TO 20000.K

 NOTE. WEIGHT FRACTION OF FUEL IN TOTAL FUELS AND OF OXIDANT IN TOTAL OXIDANTS

           THEORETICAL ROCKET PERFORMANCE ASSUMING FROZEN COMPOSITION

 Pin =    88.2 PSIA
 CASE = _______________

             REACTANT                    WT FRACTION      ENERGY      TEMP
                                          (SEE NOTE)     KJ/KG-MOL      K  
 FUEL        paraffin                     1.0000000  -1860600.000    298.150
 OXIDANT     N2O                          1.0000000         0.000      0.000

 O/F=    6.30000  %FUEL= 13.698630  R,EQ.RATIO= 1.450560  PHI,EQ.RATIO= 1.450560

                 CHAMBER   THROAT     EXIT
 Pinf/P            1.0000   1.8040   26.184
 P, BAR            6.0795   3.3700  0.23219
 T, K             2565.92  2279.77  1299.92
 RHO, KG/CU M    7.4618-1 4.6554-1 5.6253-2
 H, KJ/KG         -254.43  -707.86 -2195.44
 U, KJ/KG        -1069.17 -1431.75 -2608.20
 G, KJ/KG        -26013.6 -23594.4 -15245.3
 S, KJ/(KG)(K)    10.0389  10.0389  10.0389

 M, (1/n)          26.185   26.185   26.185
 Cp, KJ/(KG)(K)    1.5946   1.5737   1.4420
 GAMMAs            1.2486   1.2528   1.2824
 SON VEL,M/SEC     1008.6    952.3    727.5
 MACH NUMBER        0.000    1.000    2.708

 PERFORMANCE PARAMETERS

 Ae/At                      1.0000   4.0000
 CSTAR, M/SEC               1371.3   1371.3
 CF                         0.6944   1.4368
 Ivac, M/SEC                1712.4   2179.8
 Isp, M/SEC                  952.3   1970.3

 MASS FRACTIONS

 *CO             0.18957   *CO2            0.14146   *H              0.00012
 *H2             0.00419   H2O             0.11339   *NO             0.00052
 *N2             0.54905   *O              0.00005   *OH             0.00152
 *O2             0.00012

  * THERMODYNAMIC PROPERTIES FITTED TO 20000.K

 NOTE. WEIGHT FRACTION OF FUEL IN TOTAL FUELS AND OF OXIDANT IN TOTAL OXIDANTS

           THEORETICAL ROCKET PERFORMANCE ASSUMING FROZEN COMPOSITION

 Pin =   102.9 PSIA
 CASE = _______________

             REACTANT                    WT FRACTION      ENERGY      TEMP
                                          (SEE NOTE)     KJ/KG-MOL      K  
 FUEL        paraffin                     1.0000000  -1860600.000    298.150
 OXIDANT     N2O                          1.0000000         0.000      0.000

 O/F=    6.30000  %FUEL= 13.698630  R,EQ.RATIO= 1.450560  PHI,EQ.RATIO= 1.450560

                 CHAMBER   THROAT     EXIT
 Pinf/P            1.0000   1.8040   26.177
 P, BAR            7.0927   3.9317  0.27095
 T, K             2568.50  2282.15  1301.60
 RHO, KG/CU M    8.6985-1 5.4269-1 6.5573-2
 H, KJ/KG         -254.43  -708.22 -2197.08
 U, KJ/KG        -1069.82 -1432.71 -2610.29
 G, KJ/KG        -25913.7 -23506.9 -15200.1
 S, KJ/(KG)(K)     9.9900   9.9900   9.9900

 M, (1/n)          26.191   26.191   26.191
 Cp, KJ/(KG)(K)    1.5948   1.5739   1.4423
 GAMMAs            1.2485   1.2527   1.2822
 SON VEL,M/SEC     1009.0    952.7    727.9
 MACH NUMBER        0.000    1.000    2.708

 PERFORMANCE PARAMETERS

 Ae/At                      1.0000   4.0000
 CSTAR, M/SEC               1371.9   1371.9
 CF                         0.6944   1.4368
 Ivac, M/SEC                1713.2   2180.7
 Isp, M/SEC                  952.7   1971.1

 MASS FRACTIONS

 *CO             0.18956   *CO2            0.14148   *H              0.00011
 *H2             0.00419   H2O             0.11352   *NO             0.00049
 *N2             0.54907   *O              0.00004   *OH             0.00143
 *O2             0.00011

  * THERMODYNAMIC PROPERTIES FITTED TO 20000.K

 NOTE. WEIGHT FRACTION OF FUEL IN TOTAL FUELS AND OF OXIDANT IN TOTAL OXIDANTS

           THEORETICAL ROCKET PERFORMANCE ASSUMING FROZEN COMPOSITION

 Pin =   117.6 PSIA
 CASE = _______________

             REACTANT                    WT FRACTION      ENERGY      TEMP
                                          (SEE NOTE)     KJ/KG-MOL      K  
 FUEL        paraffin                     1.0000000  -1860600.000    298.150
 OXIDANT     N2O                          1.0000000         0.000      0.000

 O/F=    6.30000  %FUEL= 13.698630  R,EQ.RATIO= 1.450560  PHI,EQ.RATIO= 1.450560

                 CHAMBER   THROAT     EXIT
 Pinf/P            1.0000   1.8039   26.172
 P, BAR            8.1060   4.4936  0.30972
 T, K             2570.61  2284.11  1302.98
 RHO, KG/CU M    9.9347-1 6.1981-1 7.4888-2
 H, KJ/KG         -254.43  -708.50 -2198.42
 U, KJ/KG        -1070.35 -1433.49 -2611.99
 G, KJ/KG        -25825.8 -23429.9 -15160.0
 S, KJ/(KG)(K)     9.9476   9.9476   9.9476

 M, (1/n)          26.195   26.195   26.195
 Cp, KJ/(KG)(K)    1.5949   1.5740   1.4425
 GAMMAs            1.2485   1.2526   1.2821
 SON VEL,M/SEC     1009.3    952.9    728.2
 MACH NUMBER        0.000    1.000    2.708

 PERFORMANCE PARAMETERS

 Ae/At                      1.0000   4.0000
 CSTAR, M/SEC               1372.4   1372.4
 CF                         0.6944   1.4368
 Ivac, M/SEC                1713.7   2181.5
 Isp, M/SEC                  953.0   1971.8

 MASS FRACTIONS

 *CO             0.18954   *CO2            0.14151   *H              0.00011
 *H2             0.00419   H2O             0.11362   *NO             0.00046
 *N2             0.54908   *O              0.00004   *OH             0.00135
 *O2             0.00010

  * THERMODYNAMIC PROPERTIES FITTED TO 20000.K

 NOTE. WEIGHT FRACTION OF FUEL IN TOTAL FUELS AND OF OXIDANT IN TOTAL OXIDANTS

           THEORETICAL ROCKET PERFORMANCE ASSUMING FROZEN COMPOSITION

 Pin =   132.3 PSIA
 CASE = _______________

             REACTANT                    WT FRACTION      ENERGY      TEMP
                                          (SEE NOTE)     KJ/KG-MOL      K  
 FUEL        paraffin                     1.0000000  -1860600.000    298.150
 OXIDANT     N2O                          1.0000000         0.000      0.000

 O/F=    6.30000  %FUEL= 13.698630  R,EQ.RATIO= 1.450560  PHI,EQ.RATIO= 1.450560

                 CHAMBER   THROAT     EXIT
 Pinf/P            1.0000   1.8039   26.168
 P, BAR            9.1192   5.0554  0.34849
 T, K             2572.38  2285.75  1304.14
 RHO, KG/CU M    1.1170 0 6.9690-1 8.4200-2
 H, KJ/KG         -254.43  -708.73 -2199.54
 U, KJ/KG        -1070.80 -1434.14 -2613.43
 G, KJ/KG        -25747.3 -23361.1 -15123.9
 S, KJ/(KG)(K)     9.9102   9.9102   9.9102

 M, (1/n)          26.199   26.199   26.199
 Cp, KJ/(KG)(K)    1.5950   1.5742   1.4428
 GAMMAs            1.2484   1.2525   1.2820
 SON VEL,M/SEC     1009.5    953.2    728.4
 MACH NUMBER        0.000    1.000    2.708

 PERFORMANCE PARAMETERS

 Ae/At                      1.0000   4.0000
 CSTAR, M/SEC               1372.8   1372.8
 CF                         0.6944   1.4368
 Ivac, M/SEC                1714.2   2182.2
 Isp, M/SEC                  953.2   1972.4

 MASS FRACTIONS

 *CO             0.18953   *CO2            0.14152   *H              0.00010
 *H2             0.00419   H2O             0.11371   *NO             0.00044
 *N2             0.54909   *O              0.00003   *OH             0.00129
 *O2             0.00009

  * THERMODYNAMIC PROPERTIES FITTED TO 20000.K

 NOTE. WEIGHT FRACTION OF FUEL IN TOTAL FUELS AND OF OXIDANT IN TOTAL OXIDANTS

           THEORETICAL ROCKET PERFORMANCE ASSUMING FROZEN COMPOSITION

 Pin =   147.0 PSIA
 CASE = _______________

             REACTANT                    WT FRACTION      ENERGY      TEMP
                                          (SEE NOTE)     KJ/KG-MOL      K  
 FUEL        paraffin                     1.0000000  -1860600.000    298.150
 OXIDANT     N2O                          1.0000000         0.000      0.000

 O/F=    6.30000  %FUEL= 13.698630  R,EQ.RATIO= 1.450560  PHI,EQ.RATIO= 1.450560

                 CHAMBER   THROAT     EXIT
 Pinf/P            1.0000   1.8038   26.164
 P, BAR            10.133   5.6172  0.38727
 T, K             2573.90  2287.16  1305.13
 RHO, KG/CU M    1.2406 0 7.7397-1 9.3509-2
 H, KJ/KG         -254.43  -708.93 -2200.51
 U, KJ/KG        -1071.18 -1434.70 -2614.65
 G, KJ/KG        -25676.3 -23298.7 -15091.0
 S, KJ/(KG)(K)     9.8768   9.8768   9.8768

 M, (1/n)          26.202   26.202   26.202
 Cp, KJ/(KG)(K)    1.5951   1.5743   1.4429
 GAMMAs            1.2483   1.2525   1.2819
 SON VEL,M/SEC     1009.7    953.4    728.6
 MACH NUMBER        0.000    1.000    2.708

 PERFORMANCE PARAMETERS

 Ae/At                      1.0000   4.0000
 CSTAR, M/SEC               1373.1   1373.1
 CF                         0.6943   1.4368
 Ivac, M/SEC                1714.6   2182.8
 Isp, M/SEC                  953.4   1972.9

 MASS FRACTIONS

 *CO             0.18952   *CO2            0.14154   *H              0.00010
 *H2             0.00419   H2O             0.11379   *NO             0.00042
 *N2             0.54910   *O              0.00003   *OH             0.00123
 *O2             0.00008

  * THERMODYNAMIC PROPERTIES FITTED TO 20000.K

 NOTE. WEIGHT FRACTION OF FUEL IN TOTAL FUELS AND OF OXIDANT IN TOTAL OXIDANTS

           THEORETICAL ROCKET PERFORMANCE ASSUMING FROZEN COMPOSITION

 Pin =   161.7 PSIA
 CASE = _______________

             REACTANT                    WT FRACTION      ENERGY      TEMP
                                          (SEE NOTE)     KJ/KG-MOL      K  
 FUEL        paraffin                     1.0000000  -1860600.000    298.150
 OXIDANT     N2O                          1.0000000         0.000      0.000

 O/F=    6.30000  %FUEL= 13.698630  R,EQ.RATIO= 1.450560  PHI,EQ.RATIO= 1.450560

                 CHAMBER   THROAT     EXIT
 Pinf/P            1.0000   1.8038   26.161
 P, BAR            11.146   6.1791  0.42604
 T, K             2575.21  2288.38  1306.00
 RHO, KG/CU M    1.3641 0 8.5102-1 1.0282-1
 H, KJ/KG         -254.43  -709.11 -2201.34
 U, KJ/KG        -1071.51 -1435.18 -2615.72
 G, KJ/KG        -25611.4 -23241.8 -15060.9
 S, KJ/(KG)(K)     9.8466   9.8466   9.8466

 M, (1/n)          26.205   26.205   26.205
 Cp, KJ/(KG)(K)    1.5952   1.5744   1.4431
 GAMMAs            1.2483   1.2524   1.2818
 SON VEL,M/SEC     1009.9    953.6    728.8
 MACH NUMBER        0.000    1.000    2.708

 PERFORMANCE PARAMETERS

 Ae/At                      1.0000   4.0000
 CSTAR, M/SEC               1373.4   1373.4
 CF                         0.6943   1.4368
 Ivac, M/SEC                1715.0   2183.3
 Isp, M/SEC                  953.6   1973.3

 MASS FRACTIONS

 *CO             0.18951   *CO2            0.14155   *H              0.00009
 *H2             0.00419   H2O             0.11385   *NO             0.00041
 *N2             0.54910   *O              0.00003   *OH             0.00119
 *O2             0.00007

  * THERMODYNAMIC PROPERTIES FITTED TO 20000.K

 NOTE. WEIGHT FRACTION OF FUEL IN TOTAL FUELS AND OF OXIDANT IN TOTAL OXIDANTS

           THEORETICAL ROCKET PERFORMANCE ASSUMING FROZEN COMPOSITION

 Pin =   176.4 PSIA
 CASE = _______________

             REACTANT                    WT FRACTION      ENERGY      TEMP
                                          (SEE NOTE)     KJ/KG-MOL      K  
 FUEL        paraffin                     1.0000000  -1860600.000    298.150
 OXIDANT     N2O                          1.0000000         0.000      0.000

 O/F=    6.30000  %FUEL= 13.698630  R,EQ.RATIO= 1.450560  PHI,EQ.RATIO= 1.450560

                 CHAMBER   THROAT     EXIT
 Pinf/P            1.0000   1.8038   26.158
 P, BAR            12.159   6.7409  0.46483
 T, K             2576.37  2289.46  1306.75
 RHO, KG/CU M    1.4876 0 9.2805-1 1.1212-1
 H, KJ/KG         -254.43  -709.26 -2202.08
 U, KJ/KG        -1071.80 -1435.61 -2616.66
 G, KJ/KG        -25551.7 -23189.3 -15033.0
 S, KJ/(KG)(K)     9.8189   9.8189   9.8189

 M, (1/n)          26.207   26.207   26.207
 Cp, KJ/(KG)(K)    1.5952   1.5744   1.4432
 GAMMAs            1.2482   1.2524   1.2818
 SON VEL,M/SEC     1010.1    953.8    729.0
 MACH NUMBER        0.000    1.000    2.707

 PERFORMANCE PARAMETERS

 Ae/At                      1.0000   4.0000
 CSTAR, M/SEC               1373.7   1373.7
 CF                         0.6943   1.4368
 Ivac, M/SEC                1715.3   2183.7
 Isp, M/SEC                  953.8   1973.7

 MASS FRACTIONS

 *CO             0.18951   *CO2            0.14156   *H              0.00009
 *H2             0.00419   H2O             0.11391   *NO             0.00039
 *N2             0.54911   *O              0.00003   *OH             0.00114
 *O2             0.00007

  * THERMODYNAMIC PROPERTIES FITTED TO 20000.K

 NOTE. WEIGHT FRACTION OF FUEL IN TOTAL FUELS AND OF OXIDANT IN TOTAL OXIDANTS

           THEORETICAL ROCKET PERFORMANCE ASSUMING FROZEN COMPOSITION

 Pin =   191.0 PSIA
 CASE = _______________

             REACTANT                    WT FRACTION      ENERGY      TEMP
                                          (SEE NOTE)     KJ/KG-MOL      K  
 FUEL        paraffin                     1.0000000  -1860600.000    298.150
 OXIDANT     N2O                          1.0000000         0.000      0.000

 O/F=    6.30000  %FUEL= 13.698630  R,EQ.RATIO= 1.450560  PHI,EQ.RATIO= 1.450560

                 CHAMBER   THROAT     EXIT
 Pinf/P            1.0000   1.8037   26.156
 P, BAR            13.172   7.3028  0.50361
 T, K             2577.40  2290.42  1307.43
 RHO, KG/CU M    1.6110 0 1.0051 0 1.2142-1
 H, KJ/KG         -254.43  -709.40 -2202.73
 U, KJ/KG        -1072.06 -1435.99 -2617.49
 G, KJ/KG        -25496.4 -23140.7 -15007.1
 S, KJ/(KG)(K)     9.7936   9.7936   9.7936

 M, (1/n)          26.210   26.210   26.210
 Cp, KJ/(KG)(K)    1.5953   1.5745   1.4433
 GAMMAs            1.2482   1.2523   1.2817
 SON VEL,M/SEC     1010.2    953.9    729.1
 MACH NUMBER        0.000    1.000    2.707

 PERFORMANCE PARAMETERS

 Ae/At                      1.0000   4.0000
 CSTAR, M/SEC               1373.9   1373.9
 CF                         0.6943   1.4368
 Ivac, M/SEC                1715.6   2184.1
 Isp, M/SEC                  953.9   1974.0

 MASS FRACTIONS

 *CO             0.18950   *CO2            0.14157   *H              0.00009
 *H2             0.00419   H2O             0.11396   *NO             0.00038
 *N2             0.54912   *O              0.00003   *OH             0.00110
 *O2             0.00006

  * THERMODYNAMIC PROPERTIES FITTED TO 20000.K

 NOTE. WEIGHT FRACTION OF FUEL IN TOTAL FUELS AND OF OXIDANT IN TOTAL OXIDANTS

           THEORETICAL ROCKET PERFORMANCE ASSUMING FROZEN COMPOSITION

 Pin =   205.7 PSIA
 CASE = _______________

             REACTANT                    WT FRACTION      ENERGY      TEMP
                                          (SEE NOTE)     KJ/KG-MOL      K  
 FUEL        paraffin                     1.0000000  -1860600.000    298.150
 OXIDANT     N2O                          1.0000000         0.000      0.000

 O/F=    6.30000  %FUEL= 13.698630  R,EQ.RATIO= 1.450560  PHI,EQ.RATIO= 1.450560

                 CHAMBER   THROAT     EXIT
 Pinf/P            1.0000   1.8037   26.153
 P, BAR            14.185   7.8646  0.54239
 T, K             2578.33  2291.27  1308.03
 RHO, KG/CU M    1.7345 0 1.0821 0 1.3072-1
 H, KJ/KG         -254.43  -709.52 -2203.32
 U, KJ/KG        -1072.29 -1436.33 -2618.24
 G, KJ/KG        -25444.8 -23095.4 -14982.9
 S, KJ/(KG)(K)     9.7700   9.7700   9.7700

 M, (1/n)          26.212   26.212   26.212
 Cp, KJ/(KG)(K)    1.5954   1.5746   1.4434
 GAMMAs            1.2482   1.2523   1.2817
 SON VEL,M/SEC     1010.4    954.0    729.2
 MACH NUMBER        0.000    1.000    2.707

 PERFORMANCE PARAMETERS

 Ae/At                      1.0000   4.0000
 CSTAR, M/SEC               1374.1   1374.1
 CF                         0.6943   1.4368
 Ivac, M/SEC                1715.9   2184.4
 Isp, M/SEC                  954.0   1974.3

 MASS FRACTIONS

 *CO             0.18949   *CO2            0.14158   *H              0.00008
 *H2             0.00419   H2O             0.11401   *NO             0.00037
 *N2             0.54912   *O              0.00002   *OH             0.00107
 *O2             0.00006

  * THERMODYNAMIC PROPERTIES FITTED TO 20000.K

 NOTE. WEIGHT FRACTION OF FUEL IN TOTAL FUELS AND OF OXIDANT IN TOTAL OXIDANTS

           THEORETICAL ROCKET PERFORMANCE ASSUMING FROZEN COMPOSITION

 Pin =   220.4 PSIA
 CASE = _______________

             REACTANT                    WT FRACTION      ENERGY      TEMP
                                          (SEE NOTE)     KJ/KG-MOL      K  
 FUEL        paraffin                     1.0000000  -1860600.000    298.150
 OXIDANT     N2O                          1.0000000         0.000      0.000

 O/F=    6.30000  %FUEL= 13.698630  R,EQ.RATIO= 1.450560  PHI,EQ.RATIO= 1.450560

                 CHAMBER   THROAT     EXIT
 Pinf/P            1.0000   1.8037   26.151
 P, BAR            15.199   8.4265  0.58118
 T, K             2579.17  2292.05  1308.58
 RHO, KG/CU M    1.8579 0 1.1591 0 1.4002-1
 H, KJ/KG         -254.43  -709.63 -2203.85
 U, KJ/KG        -1072.50 -1436.64 -2618.91
 G, KJ/KG        -25396.5 -23052.9 -14960.1
 S, KJ/(KG)(K)     9.7482   9.7482   9.7482

 M, (1/n)          26.213   26.213   26.213
 Cp, KJ/(KG)(K)    1.5954   1.5746   1.4435
 GAMMAs            1.2481   1.2522   1.2816
 SON VEL,M/SEC     1010.5    954.1    729.3
 MACH NUMBER        0.000    1.000    2.707

 PERFORMANCE PARAMETERS

 Ae/At                      1.0000   4.0000
 CSTAR, M/SEC               1374.3   1374.3
 CF                         0.6943   1.4368
 Ivac, M/SEC                1716.1   2184.8
 Isp, M/SEC                  954.2   1974.5

 MASS FRACTIONS

 *CO             0.18949   *CO2            0.14159   *H              0.00008
 *H2             0.00419   H2O             0.11405   *NO             0.00036
 *N2             0.54913   *O              0.00002   *OH             0.00104
 *O2             0.00006

  * THERMODYNAMIC PROPERTIES FITTED TO 20000.K

 NOTE. WEIGHT FRACTION OF FUEL IN TOTAL FUELS AND OF OXIDANT IN TOTAL OXIDANTS

           THEORETICAL ROCKET PERFORMANCE ASSUMING FROZEN COMPOSITION

 Pin =   235.1 PSIA
 CASE = _______________

             REACTANT                    WT FRACTION      ENERGY      TEMP
                                          (SEE NOTE)     KJ/KG-MOL      K  
 FUEL        paraffin                     1.0000000  -1860600.000    298.150
 OXIDANT     N2O                          1.0000000         0.000      0.000

 O/F=    6.30000  %FUEL= 13.698630  R,EQ.RATIO= 1.450560  PHI,EQ.RATIO= 1.450560

                 CHAMBER   THROAT     EXIT
 Pinf/P            1.0000   1.8037   26.150
 P, BAR            16.212   8.9884  0.61997
 T, K             2579.93  2292.75  1309.08
 RHO, KG/CU M    1.9813 0 1.2360 0 1.4932-1
 H, KJ/KG         -254.43  -709.73 -2204.33
 U, KJ/KG        -1072.70 -1436.92 -2619.53
 G, KJ/KG        -25351.1 -23012.9 -14938.7
 S, KJ/(KG)(K)     9.7277   9.7277   9.7277

 M, (1/n)          26.215   26.215   26.215
 Cp, KJ/(KG)(K)    1.5955   1.5747   1.4436
 GAMMAs            1.2481   1.2522   1.2816
 SON VEL,M/SEC     1010.6    954.3    729.5
 MACH NUMBER        0.000    1.000    2.707

 PERFORMANCE PARAMETERS

 Ae/At                      1.0000   4.0000
 CSTAR, M/SEC               1374.5   1374.5
 CF                         0.6943   1.4368
 Ivac, M/SEC                1716.3   2185.0
 Isp, M/SEC                  954.3   1974.8

 MASS FRACTIONS

 *CO             0.18949   *CO2            0.14160   *H              0.00008
 *H2             0.00419   H2O             0.11409   *NO             0.00035
 *N2             0.54913   *O              0.00002   *OH             0.00101
 *O2             0.00005

  * THERMODYNAMIC PROPERTIES FITTED TO 20000.K

 NOTE. WEIGHT FRACTION OF FUEL IN TOTAL FUELS AND OF OXIDANT IN TOTAL OXIDANTS

           THEORETICAL ROCKET PERFORMANCE ASSUMING FROZEN COMPOSITION

 Pin =   249.8 PSIA
 CASE = _______________

             REACTANT                    WT FRACTION      ENERGY      TEMP
                                          (SEE NOTE)     KJ/KG-MOL      K  
 FUEL        paraffin                     1.0000000  -1860600.000    298.150
 OXIDANT     N2O                          1.0000000         0.000      0.000

 O/F=    6.30000  %FUEL= 13.698630  R,EQ.RATIO= 1.450560  PHI,EQ.RATIO= 1.450560

                 CHAMBER   THROAT     EXIT
 Pinf/P            1.0000   1.8036   26.148
 P, BAR            17.225   9.5502  0.65876
 T, K             2580.62  2293.40  1309.54
 RHO, KG/CU M    2.1046 0 1.3130 0 1.5862-1
 H, KJ/KG         -254.43  -709.82 -2204.77
 U, KJ/KG        -1072.87 -1437.17 -2620.09
 G, KJ/KG        -25308.3 -22975.2 -14918.3
 S, KJ/(KG)(K)     9.7085   9.7085   9.7085

 M, (1/n)          26.216   26.216   26.216
 Cp, KJ/(KG)(K)    1.5955   1.5747   1.4437
 GAMMAs            1.2481   1.2522   1.2815
 SON VEL,M/SEC     1010.7    954.3    729.5
 MACH NUMBER        0.000    1.000    2.707

 PERFORMANCE PARAMETERS

 Ae/At                      1.0000   4.0000
 CSTAR, M/SEC               1374.6   1374.6
 CF                         0.6943   1.4368
 Ivac, M/SEC                1716.5   2185.3
 Isp, M/SEC                  954.4   1975.0

 MASS FRACTIONS

 *CO             0.18948   *CO2            0.14160   *H              0.00008
 *H2             0.00419   H2O             0.11412   *NO             0.00034
 *N2             0.54913   *O              0.00002   *OH             0.00098
 *O2             0.00005

  * THERMODYNAMIC PROPERTIES FITTED TO 20000.K

 NOTE. WEIGHT FRACTION OF FUEL IN TOTAL FUELS AND OF OXIDANT IN TOTAL OXIDANTS

           THEORETICAL ROCKET PERFORMANCE ASSUMING FROZEN COMPOSITION

 Pin =   264.5 PSIA
 CASE = _______________

             REACTANT                    WT FRACTION      ENERGY      TEMP
                                          (SEE NOTE)     KJ/KG-MOL      K  
 FUEL        paraffin                     1.0000000  -1860600.000    298.150
 OXIDANT     N2O                          1.0000000         0.000      0.000

 O/F=    6.30000  %FUEL= 13.698630  R,EQ.RATIO= 1.450560  PHI,EQ.RATIO= 1.450560

                 CHAMBER   THROAT     EXIT
 Pinf/P            1.0000   1.8036   26.146
 P, BAR            18.238   10.112  0.69755
 T, K             2581.26  2293.99  1309.95
 RHO, KG/CU M    2.2280 0 1.3900 0 1.6791-1
 H, KJ/KG         -254.43  -709.91 -2205.18
 U, KJ/KG        -1073.03 -1437.41 -2620.61
 G, KJ/KG        -25267.7 -22939.5 -14899.1
 S, KJ/(KG)(K)     9.6903   9.6903   9.6903

 M, (1/n)          26.218   26.218   26.218
 Cp, KJ/(KG)(K)    1.5955   1.5748   1.4438
 GAMMAs            1.2481   1.2522   1.2815
 SON VEL,M/SEC     1010.8    954.4    729.6
 MACH NUMBER        0.000    1.000    2.707

 PERFORMANCE PARAMETERS

 Ae/At                      1.0000   4.0000
 CSTAR, M/SEC               1374.8   1374.8
 CF                         0.6943   1.4368
 Ivac, M/SEC                1716.7   2185.5
 Isp, M/SEC                  954.4   1975.2

 MASS FRACTIONS

 *CO             0.18948   *CO2            0.14161   *H              0.00007
 *H2             0.00419   H2O             0.11416   *NO             0.00033
 *N2             0.54914   *O              0.00002   *OH             0.00096
 *O2             0.00005

  * THERMODYNAMIC PROPERTIES FITTED TO 20000.K

 NOTE. WEIGHT FRACTION OF FUEL IN TOTAL FUELS AND OF OXIDANT IN TOTAL OXIDANTS

           THEORETICAL ROCKET PERFORMANCE ASSUMING FROZEN COMPOSITION

 Pin =   279.2 PSIA
 CASE = _______________

             REACTANT                    WT FRACTION      ENERGY      TEMP
                                          (SEE NOTE)     KJ/KG-MOL      K  
 FUEL        paraffin                     1.0000000  -1860600.000    298.150
 OXIDANT     N2O                          1.0000000         0.000      0.000

 O/F=    6.30000  %FUEL= 13.698630  R,EQ.RATIO= 1.450560  PHI,EQ.RATIO= 1.450560

                 CHAMBER   THROAT     EXIT
 Pinf/P            1.0000   1.8036   26.145
 P, BAR            19.252   10.674  0.73635
 T, K             2581.85  2294.54  1310.34
 RHO, KG/CU M    2.3514 0 1.4669 0 1.7721-1
 H, KJ/KG         -254.43  -709.98 -2205.55
 U, KJ/KG        -1073.18 -1437.63 -2621.09
 G, KJ/KG        -25229.2 -22905.5 -14880.7
 S, KJ/(KG)(K)     9.6732   9.6732   9.6732

 M, (1/n)          26.219   26.219   26.219
 Cp, KJ/(KG)(K)    1.5956   1.5748   1.4438
 GAMMAs            1.2480   1.2521   1.2815
 SON VEL,M/SEC     1010.9    954.5    729.7
 MACH NUMBER        0.000    1.000    2.707

 PERFORMANCE PARAMETERS

 Ae/At                     1.00000   4.0000
 CSTAR, M/SEC               1374.9   1374.9
 CF                         0.6942   1.4368
 Ivac, M/SEC                1716.8   2185.8
 Isp, M/SEC                  954.5   1975.4

 MASS FRACTIONS

 *CO             0.18947   *CO2            0.14161   *H              0.00007
 *H2             0.00419   H2O             0.11419   *NO             0.00032
 *N2             0.54914   *O              0.00002   *OH             0.00094
 *O2             0.00004

  * THERMODYNAMIC PROPERTIES FITTED TO 20000.K

 NOTE. WEIGHT FRACTION OF FUEL IN TOTAL FUELS AND OF OXIDANT IN TOTAL OXIDANTS

           THEORETICAL ROCKET PERFORMANCE ASSUMING FROZEN COMPOSITION

 Pin =   293.9 PSIA
 CASE = _______________

             REACTANT                    WT FRACTION      ENERGY      TEMP
                                          (SEE NOTE)     KJ/KG-MOL      K  
 FUEL        paraffin                     1.0000000  -1860600.000    298.150
 OXIDANT     N2O                          1.0000000         0.000      0.000

 O/F=    6.30000  %FUEL= 13.698630  R,EQ.RATIO= 1.450560  PHI,EQ.RATIO= 1.450560

                 CHAMBER   THROAT     EXIT
 Pinf/P            1.0000   1.8036   26.144
 P, BAR            20.265   11.236  0.77514
 T, K             2582.40  2295.05  1310.70
 RHO, KG/CU M    2.4747 0 1.5439 0 1.8650-1
 H, KJ/KG         -254.43  -710.06 -2205.90
 U, KJ/KG        -1073.32 -1437.83 -2621.53
 G, KJ/KG        -25192.5 -22873.2 -14863.2
 S, KJ/(KG)(K)     9.6569   9.6569   9.6569

 M, (1/n)          26.220   26.220   26.220
 Cp, KJ/(KG)(K)    1.5956   1.5748   1.4439
 GAMMAs            1.2480   1.2521   1.2814
 SON VEL,M/SEC     1010.9    954.6    729.8
 MACH NUMBER        0.000    1.000    2.707

 PERFORMANCE PARAMETERS

 Ae/At                      1.0000   4.0000
 CSTAR, M/SEC               1375.0   1375.0
 CF                         0.6942   1.4368
 Ivac, M/SEC                1717.0   2186.0
 Isp, M/SEC                  954.6   1975.6

 MASS FRACTIONS

 *CO             0.18947   *CO2            0.14162   *H              0.00007
 *H2             0.00418   H2O             0.11421   *NO             0.00032
 *N2             0.54914   *O              0.00002   *OH             0.00092
 *O2             0.00004

  * THERMODYNAMIC PROPERTIES FITTED TO 20000.K

 NOTE. WEIGHT FRACTION OF FUEL IN TOTAL FUELS AND OF OXIDANT IN TOTAL OXIDANTS

           THEORETICAL ROCKET PERFORMANCE ASSUMING FROZEN COMPOSITION

 Pin =   308.6 PSIA
 CASE = _______________

             REACTANT                    WT FRACTION      ENERGY      TEMP
                                          (SEE NOTE)     KJ/KG-MOL      K  
 FUEL        paraffin                     1.0000000  -1860600.000    298.150
 OXIDANT     N2O                          1.0000000         0.000      0.000

 O/F=    6.30000  %FUEL= 13.698630  R,EQ.RATIO= 1.450560  PHI,EQ.RATIO= 1.450560

                 CHAMBER   THROAT     EXIT
 Pinf/P            1.0000   1.8036   26.142
 P, BAR            21.278   11.798  0.81394
 T, K             2582.91  2295.53  1311.04
 RHO, KG/CU M    2.5980 0 1.6208 0 1.9579-1
 H, KJ/KG         -254.43  -710.13 -2206.23
 U, KJ/KG        -1073.45 -1438.02 -2621.94
 G, KJ/KG        -25157.5 -22842.3 -14846.5
 S, KJ/(KG)(K)     9.6415   9.6415   9.6415

 M, (1/n)          26.221   26.221   26.221
 Cp, KJ/(KG)(K)    1.5956   1.5749   1.4439
 GAMMAs            1.2480   1.2521   1.2814
 SON VEL,M/SEC     1011.0    954.7    729.9
 MACH NUMBER        0.000    1.000    2.707

 PERFORMANCE PARAMETERS

 Ae/At                      1.0000   4.0000
 CSTAR, M/SEC               1375.2   1375.2
 CF                         0.6942   1.4368
 Ivac, M/SEC                1717.1   2186.2
 Isp, M/SEC                  954.7   1975.8

 MASS FRACTIONS

 *CO             0.18947   *CO2            0.14162   *H              0.00007
 *H2             0.00418   H2O             0.11424   *NO             0.00031
 *N2             0.54915   *O              0.00002   *OH             0.00090
 *O2             0.00004

  * THERMODYNAMIC PROPERTIES FITTED TO 20000.K

 NOTE. WEIGHT FRACTION OF FUEL IN TOTAL FUELS AND OF OXIDANT IN TOTAL OXIDANTS

           THEORETICAL ROCKET PERFORMANCE ASSUMING FROZEN COMPOSITION

 Pin =   323.3 PSIA
 CASE = _______________

             REACTANT                    WT FRACTION      ENERGY      TEMP
                                          (SEE NOTE)     KJ/KG-MOL      K  
 FUEL        paraffin                     1.0000000  -1860600.000    298.150
 OXIDANT     N2O                          1.0000000         0.000      0.000

 O/F=    6.30000  %FUEL= 13.698630  R,EQ.RATIO= 1.450560  PHI,EQ.RATIO= 1.450560

                 CHAMBER   THROAT     EXIT
 Pinf/P            1.0000   1.8036   26.141
 P, BAR            22.291   12.360  0.85273
 T, K             2583.39  2295.97  1311.35
 RHO, KG/CU M    2.7213 0 1.6977 0 2.0508-1
 H, KJ/KG         -254.43  -710.19 -2206.53
 U, KJ/KG        -1073.57 -1438.19 -2622.33
 G, KJ/KG        -25123.9 -22812.8 -14830.5
 S, KJ/(KG)(K)     9.6267   9.6267   9.6267

 M, (1/n)          26.222   26.222   26.222
 Cp, KJ/(KG)(K)    1.5957   1.5749   1.4440
 GAMMAs            1.2480   1.2521   1.2814
 SON VEL,M/SEC     1011.1    954.7    729.9
 MACH NUMBER        0.000    1.000    2.707

 PERFORMANCE PARAMETERS

 Ae/At                      1.0000   4.0000
 CSTAR, M/SEC               1375.3   1375.3
 CF                         0.6942   1.4368
 Ivac, M/SEC                1717.3   2186.3
 Isp, M/SEC                  954.7   1975.9

 MASS FRACTIONS

 *CO             0.18946   *CO2            0.14163   *H              0.00007
 *H2             0.00418   H2O             0.11426   *NO             0.00030
 *N2             0.54915   *O              0.00002   *OH             0.00088
 *O2             0.00004

  * THERMODYNAMIC PROPERTIES FITTED TO 20000.K

 NOTE. WEIGHT FRACTION OF FUEL IN TOTAL FUELS AND OF OXIDANT IN TOTAL OXIDANTS

           THEORETICAL ROCKET PERFORMANCE ASSUMING FROZEN COMPOSITION

 Pin =   338.0 PSIA
 CASE = _______________

             REACTANT                    WT FRACTION      ENERGY      TEMP
                                          (SEE NOTE)     KJ/KG-MOL      K  
 FUEL        paraffin                     1.0000000  -1860600.000    298.150
 OXIDANT     N2O                          1.0000000         0.000      0.000

 O/F=    6.30000  %FUEL= 13.698630  R,EQ.RATIO= 1.450560  PHI,EQ.RATIO= 1.450560

                 CHAMBER   THROAT     EXIT
 Pinf/P            1.0000   1.8036   26.140
 P, BAR            23.305   12.921  0.89153
 T, K             2583.84  2296.38  1311.64
 RHO, KG/CU M    2.8446 0 1.7747 0 2.1437-1
 H, KJ/KG         -254.43  -710.25 -2206.81
 U, KJ/KG        -1073.68 -1438.36 -2622.69
 G, KJ/KG        -25091.8 -22784.5 -14815.1
 S, KJ/(KG)(K)     9.6126   9.6126   9.6126

 M, (1/n)          26.223   26.223   26.223
 Cp, KJ/(KG)(K)    1.5957   1.5749   1.4441
 GAMMAs            1.2480   1.2521   1.2813
 SON VEL,M/SEC     1011.1    954.8    730.0
 MACH NUMBER        0.000    1.000    2.707

 PERFORMANCE PARAMETERS

 Ae/At                      1.0000   4.0000
 CSTAR, M/SEC               1375.4   1375.4
 CF                         0.6942   1.4368
 Ivac, M/SEC                1717.4   2186.5
 Isp, M/SEC                  954.8   1976.0

 MASS FRACTIONS

 *CO             0.18946   *CO2            0.14163   *H              0.00007
 *H2             0.00418   H2O             0.11429   *NO             0.00030
 *N2             0.54915   *O              0.00002   *OH             0.00086
 *O2             0.00004

  * THERMODYNAMIC PROPERTIES FITTED TO 20000.K

 NOTE. WEIGHT FRACTION OF FUEL IN TOTAL FUELS AND OF OXIDANT IN TOTAL OXIDANTS

           THEORETICAL ROCKET PERFORMANCE ASSUMING FROZEN COMPOSITION

 Pin =   352.7 PSIA
 CASE = _______________

             REACTANT                    WT FRACTION      ENERGY      TEMP
                                          (SEE NOTE)     KJ/KG-MOL      K  
 FUEL        paraffin                     1.0000000  -1860600.000    298.150
 OXIDANT     N2O                          1.0000000         0.000      0.000

 O/F=    6.30000  %FUEL= 13.698630  R,EQ.RATIO= 1.450560  PHI,EQ.RATIO= 1.450560

                 CHAMBER   THROAT     EXIT
 Pinf/P            1.0000   1.8036   26.139
 P, BAR            24.318   13.483  0.93033
 T, K             2584.26  2296.77  1311.92
 RHO, KG/CU M    2.9679 0 1.8516 0 2.2366-1
 H, KJ/KG         -254.43  -710.30 -2207.08
 U, KJ/KG        -1073.78 -1438.51 -2623.03
 G, KJ/KG        -25061.0 -22757.3 -14800.3
 S, KJ/(KG)(K)     9.5991   9.5991   9.5991

 M, (1/n)          26.224   26.224   26.224
 Cp, KJ/(KG)(K)    1.5957   1.5750   1.4441
 GAMMAs            1.2480   1.2520   1.2813
 SON VEL,M/SEC     1011.2    954.9    730.0
 MACH NUMBER        0.000    1.000    2.707

 PERFORMANCE PARAMETERS

 Ae/At                      1.0000   4.0000
 CSTAR, M/SEC               1375.5   1375.5
 CF                         0.6942   1.4367
 Ivac, M/SEC                1717.5   2186.7
 Isp, M/SEC                  954.9   1976.2

 MASS FRACTIONS

 *CO             0.18946   *CO2            0.14164   *H              0.00007
 *H2             0.00418   H2O             0.11431   *NO             0.00029
 *N2             0.54916   *O              0.00001   *OH             0.00084
 *O2             0.00004

  * THERMODYNAMIC PROPERTIES FITTED TO 20000.K

 NOTE. WEIGHT FRACTION OF FUEL IN TOTAL FUELS AND OF OXIDANT IN TOTAL OXIDANTS

           THEORETICAL ROCKET PERFORMANCE ASSUMING FROZEN COMPOSITION

 Pin =    14.7 PSIA
 CASE = _______________

             REACTANT                    WT FRACTION      ENERGY      TEMP
                                          (SEE NOTE)     KJ/KG-MOL      K  
 FUEL        paraffin                     1.0000000  -1860600.000    298.150
 OXIDANT     N2O                          1.0000000         0.000      0.000

 O/F=    6.50000  %FUEL= 13.333333  R,EQ.RATIO= 1.405927  PHI,EQ.RATIO= 1.405927

                 CHAMBER   THROAT     EXIT
 Pinf/P            1.0000   1.8038   26.160
 P, BAR            1.0132  0.56174  0.03873
 T, K             2557.28  2272.46  1296.97
 RHO, KG/CU M    1.2550-1 7.8296-2 9.4592-3
 H, KJ/KG         -247.64  -696.91 -2171.43
 U, KJ/KG        -1055.02 -1414.36 -2580.91
 G, KJ/KG        -27259.5 -24700.2 -15870.9
 S, KJ/(KG)(K)    10.5627  10.5627  10.5627

 M, (1/n)          26.335   26.335   26.335
 Cp, KJ/(KG)(K)    1.5873   1.5666   1.4361
 GAMMAs            1.2483   1.2524   1.2818
 SON VEL,M/SEC     1003.9    947.9    724.5
 MACH NUMBER        0.000    1.000    2.708

 PERFORMANCE PARAMETERS

 Ae/At                      1.0000   4.0000
 CSTAR, M/SEC               1365.2   1365.2
 CF                         0.6943   1.4368
 Ivac, M/SEC                1704.8   2170.3
 Isp, M/SEC                  947.9   1961.5

 MASS FRACTIONS

 *CO             0.17627   *CO2            0.15064   *H              0.00027
 *H2             0.00362   H2O             0.11190   *NO             0.00137
 *N2             0.55098   *O              0.00031   *OH             0.00377
 *O2             0.00087

  * THERMODYNAMIC PROPERTIES FITTED TO 20000.K

 NOTE. WEIGHT FRACTION OF FUEL IN TOTAL FUELS AND OF OXIDANT IN TOTAL OXIDANTS

           THEORETICAL ROCKET PERFORMANCE ASSUMING FROZEN COMPOSITION

 Pin =    29.4 PSIA
 CASE = _______________

             REACTANT                    WT FRACTION      ENERGY      TEMP
                                          (SEE NOTE)     KJ/KG-MOL      K  
 FUEL        paraffin                     1.0000000  -1860600.000    298.150
 OXIDANT     N2O                          1.0000000         0.000      0.000

 O/F=    6.50000  %FUEL= 13.333333  R,EQ.RATIO= 1.405927  PHI,EQ.RATIO= 1.405927

                 CHAMBER   THROAT     EXIT
 Pinf/P            1.0000   1.8032   26.102
 P, BAR            2.0265   1.1238  0.07764
 T, K             2580.69  2294.18  1312.34
 RHO, KG/CU M    2.4919-1 1.5545-1 1.8773-2
 H, KJ/KG         -247.64  -700.02 -2186.23
 U, KJ/KG        -1060.88 -1422.96 -2599.78
 G, KJ/KG        -26942.6 -24431.2 -15761.2
 S, KJ/(KG)(K)    10.3441  10.3441  10.3441

 M, (1/n)          26.385   26.385   26.385
 Cp, KJ/(KG)(K)    1.5887   1.5683   1.4388
 GAMMAs            1.2474   1.2515   1.2804
 SON VEL,M/SEC     1007.2    951.2    727.7
 MACH NUMBER        0.000    1.000    2.706

 PERFORMANCE PARAMETERS

 Ae/At                      1.0000   4.0000
 CSTAR, M/SEC               1370.5   1370.5
 CF                         0.6940   1.4367
 Ivac, M/SEC                1711.2   2179.1
 Isp, M/SEC                  951.2   1969.1

 MASS FRACTIONS

 *CO             0.17587   *CO2            0.15128   *H              0.00021
 *H2             0.00360   H2O             0.11302   *NO             0.00114
 *N2             0.55109   *O              0.00019   *OH             0.00305
 *O2             0.00056

  * THERMODYNAMIC PROPERTIES FITTED TO 20000.K

 NOTE. WEIGHT FRACTION OF FUEL IN TOTAL FUELS AND OF OXIDANT IN TOTAL OXIDANTS

           THEORETICAL ROCKET PERFORMANCE ASSUMING FROZEN COMPOSITION

 Pin =    44.1 PSIA
 CASE = _______________

             REACTANT                    WT FRACTION      ENERGY      TEMP
                                          (SEE NOTE)     KJ/KG-MOL      K  
 FUEL        paraffin                     1.0000000  -1860600.000    298.150
 OXIDANT     N2O                          1.0000000         0.000      0.000

 O/F=    6.50000  %FUEL= 13.333333  R,EQ.RATIO= 1.405927  PHI,EQ.RATIO= 1.405927

                 CHAMBER   THROAT     EXIT
 Pinf/P            1.0000   1.8029   26.074
 P, BAR            3.0397   1.6860  0.11658
 T, K             2592.46  2305.11  1320.09
 RHO, KG/CU M    3.7244-1 2.3233-1 2.8052-2
 H, KJ/KG         -247.64  -701.57 -2193.65
 U, KJ/KG        -1063.81 -1427.28 -2609.25
 G, KJ/KG        -26733.2 -24251.4 -15680.2
 S, KJ/(KG)(K)    10.2164  10.2164  10.2164

 M, (1/n)          26.410   26.410   26.410
 Cp, KJ/(KG)(K)    1.5895   1.5691   1.4402
 GAMMAs            1.2470   1.2510   1.2797
 SON VEL,M/SEC     1008.8    952.8    729.3
 MACH NUMBER        0.000    1.000    2.705

 PERFORMANCE PARAMETERS

 Ae/At                      1.0000   4.0000
 CSTAR, M/SEC               1373.2   1373.2
 CF                         0.6939   1.4367
 Ivac, M/SEC                1714.5   2183.5
 Isp, M/SEC                  952.8   1972.8

 MASS FRACTIONS

 *CO             0.17567   *CO2            0.15159   *H              0.00018
 *H2             0.00359   H2O             0.11359   *NO             0.00101
 *N2             0.55115   *O              0.00015   *OH             0.00266
 *O2             0.00042

  * THERMODYNAMIC PROPERTIES FITTED TO 20000.K

 NOTE. WEIGHT FRACTION OF FUEL IN TOTAL FUELS AND OF OXIDANT IN TOTAL OXIDANTS

           THEORETICAL ROCKET PERFORMANCE ASSUMING FROZEN COMPOSITION

 Pin =    58.8 PSIA
 CASE = _______________

             REACTANT                    WT FRACTION      ENERGY      TEMP
                                          (SEE NOTE)     KJ/KG-MOL      K  
 FUEL        paraffin                     1.0000000  -1860600.000    298.150
 OXIDANT     N2O                          1.0000000         0.000      0.000

 O/F=    6.50000  %FUEL= 13.333333  R,EQ.RATIO= 1.405927  PHI,EQ.RATIO= 1.405927

                 CHAMBER   THROAT     EXIT
 Pinf/P            1.0000   1.8027   26.056
 P, BAR            4.0530   2.2482  0.15555
 T, K             2599.97  2312.08  1325.03
 RHO, KG/CU M    4.9545-1 3.0905-1 3.7312-2
 H, KJ/KG         -247.64  -702.57 -2198.38
 U, KJ/KG        -1065.69 -1430.03 -2615.29
 G, KJ/KG        -26574.6 -24114.3 -15615.4
 S, KJ/(KG)(K)    10.1258  10.1258  10.1258

 M, (1/n)          26.426   26.426   26.426
 Cp, KJ/(KG)(K)    1.5899   1.5696   1.4411
 GAMMAs            1.2467   1.2507   1.2793
 SON VEL,M/SEC     1009.9    953.9    730.3
 MACH NUMBER        0.000    1.000    2.705

 PERFORMANCE PARAMETERS

 Ae/At                      1.0000   4.0000
 CSTAR, M/SEC               1374.9   1374.9
 CF                         0.6938   1.4367
 Ivac, M/SEC                1716.5   2186.3
 Isp, M/SEC                  953.9   1975.2

 MASS FRACTIONS

 *CO             0.17554   *CO2            0.15179   *H              0.00016
 *H2             0.00358   H2O             0.11396   *NO             0.00092
 *N2             0.55119   *O              0.00012   *OH             0.00241
 *O2             0.00034

  * THERMODYNAMIC PROPERTIES FITTED TO 20000.K

 NOTE. WEIGHT FRACTION OF FUEL IN TOTAL FUELS AND OF OXIDANT IN TOTAL OXIDANTS

           THEORETICAL ROCKET PERFORMANCE ASSUMING FROZEN COMPOSITION

 Pin =    73.5 PSIA
 CASE = _______________

             REACTANT                    WT FRACTION      ENERGY      TEMP
                                          (SEE NOTE)     KJ/KG-MOL      K  
 FUEL        paraffin                     1.0000000  -1860600.000    298.150
 OXIDANT     N2O                          1.0000000         0.000      0.000

 O/F=    6.50000  %FUEL= 13.333333  R,EQ.RATIO= 1.405927  PHI,EQ.RATIO= 1.405927

                 CHAMBER   THROAT     EXIT
 Pinf/P            1.0000   1.8026   26.043
 P, BAR            5.0663   2.8105  0.19454
 T, K             2605.33  2317.05  1328.56
 RHO, KG/CU M    6.1830-1 3.8568-1 4.6559-2
 H, KJ/KG         -247.64  -703.27 -2201.76
 U, KJ/KG        -1067.02 -1431.99 -2619.59
 G, KJ/KG        -26446.0 -24002.7 -15561.3
 S, KJ/(KG)(K)    10.0556  10.0556  10.0556

 M, (1/n)          26.437   26.437   26.437
 Cp, KJ/(KG)(K)    1.5902   1.5700   1.4417
 GAMMAs            1.2465   1.2505   1.2790
 SON VEL,M/SEC     1010.6    954.6    731.0
 MACH NUMBER        0.000    1.000    2.704

 PERFORMANCE PARAMETERS

 Ae/At                      1.0000   4.0000
 CSTAR, M/SEC               1376.1   1376.1
 CF                         0.6937   1.4367
 Ivac, M/SEC                1718.0   2188.3
 Isp, M/SEC                  954.6   1976.9

 MASS FRACTIONS

 *CO             0.17545   *CO2            0.15193   *H              0.00014
 *H2             0.00358   H2O             0.11422   *NO             0.00085
 *N2             0.55122   *O              0.00010   *OH             0.00222
 *O2             0.00029

  * THERMODYNAMIC PROPERTIES FITTED TO 20000.K

 NOTE. WEIGHT FRACTION OF FUEL IN TOTAL FUELS AND OF OXIDANT IN TOTAL OXIDANTS

           THEORETICAL ROCKET PERFORMANCE ASSUMING FROZEN COMPOSITION

 Pin =    88.2 PSIA
 CASE = _______________

             REACTANT                    WT FRACTION      ENERGY      TEMP
                                          (SEE NOTE)     KJ/KG-MOL      K  
 FUEL        paraffin                     1.0000000  -1860600.000    298.150
 OXIDANT     N2O                          1.0000000         0.000      0.000

 O/F=    6.50000  %FUEL= 13.333333  R,EQ.RATIO= 1.405927  PHI,EQ.RATIO= 1.405927

                 CHAMBER   THROAT     EXIT
 Pinf/P            1.0000   1.8025   26.033
 P, BAR            6.0795   3.3728  0.23353
 T, K             2609.42  2320.85  1331.25
 RHO, KG/CU M    7.4104-1 4.6224-1 5.5796-2
 H, KJ/KG         -247.64  -703.81 -2204.33
 U, KJ/KG        -1068.04 -1433.48 -2622.87
 G, KJ/KG        -26337.5 -23908.4 -15514.6
 S, KJ/(KG)(K)     9.9983   9.9983   9.9983

 M, (1/n)          26.446   26.446   26.446
 Cp, KJ/(KG)(K)    1.5905   1.5703   1.4422
 GAMMAs            1.2464   1.2503   1.2788
 SON VEL,M/SEC     1011.2    955.2    731.6
 MACH NUMBER        0.000    1.000    2.704

 PERFORMANCE PARAMETERS

 Ae/At                      1.0000   4.0000
 CSTAR, M/SEC               1377.0   1377.0
 CF                         0.6937   1.4366
 Ivac, M/SEC                1719.1   2189.8
 Isp, M/SEC                  955.2   1978.2

 MASS FRACTIONS

 *CO             0.17539   *CO2            0.15203   *H              0.00013
 *H2             0.00358   H2O             0.11442   *NO             0.00080
 *N2             0.55125   *O              0.00009   *OH             0.00207
 *O2             0.00025

  * THERMODYNAMIC PROPERTIES FITTED TO 20000.K

 NOTE. WEIGHT FRACTION OF FUEL IN TOTAL FUELS AND OF OXIDANT IN TOTAL OXIDANTS

           THEORETICAL ROCKET PERFORMANCE ASSUMING FROZEN COMPOSITION

 Pin =   102.9 PSIA
 CASE = _______________

             REACTANT                    WT FRACTION      ENERGY      TEMP
                                          (SEE NOTE)     KJ/KG-MOL      K  
 FUEL        paraffin                     1.0000000  -1860600.000    298.150
 OXIDANT     N2O                          1.0000000         0.000      0.000

 O/F=    6.50000  %FUEL= 13.333333  R,EQ.RATIO= 1.405927  PHI,EQ.RATIO= 1.405927

                 CHAMBER   THROAT     EXIT
 Pinf/P            1.0000   1.8024   26.025
 P, BAR            7.0927   3.9351  0.27254
 T, K             2612.68  2323.87  1333.40
 RHO, KG/CU M    8.6370-1 5.3874-1 6.5027-2
 H, KJ/KG         -247.64  -704.24 -2206.38
 U, KJ/KG        -1068.85 -1434.67 -2625.49
 G, KJ/KG        -26243.4 -23826.4 -15473.5
 S, KJ/(KG)(K)     9.9499   9.9499   9.9499

 M, (1/n)          26.453   26.453   26.453
 Cp, KJ/(KG)(K)    1.5907   1.5705   1.4426
 GAMMAs            1.2463   1.2502   1.2786
 SON VEL,M/SEC     1011.6    955.6    732.0
 MACH NUMBER        0.000    1.000    2.704

 PERFORMANCE PARAMETERS

 Ae/At                      1.0000   4.0000
 CSTAR, M/SEC               1377.7   1377.7
 CF                         0.6936   1.4366
 Ivac, M/SEC                1720.0   2191.0
 Isp, M/SEC                  955.6   1979.3

 MASS FRACTIONS

 *CO             0.17534   *CO2            0.15211   *H              0.00013
 *H2             0.00357   H2O             0.11458   *NO             0.00075
 *N2             0.55127   *O              0.00008   *OH             0.00195
 *O2             0.00022

  * THERMODYNAMIC PROPERTIES FITTED TO 20000.K

 NOTE. WEIGHT FRACTION OF FUEL IN TOTAL FUELS AND OF OXIDANT IN TOTAL OXIDANTS

           THEORETICAL ROCKET PERFORMANCE ASSUMING FROZEN COMPOSITION

 Pin =   117.6 PSIA
 CASE = _______________

             REACTANT                    WT FRACTION      ENERGY      TEMP
                                          (SEE NOTE)     KJ/KG-MOL      K  
 FUEL        paraffin                     1.0000000  -1860600.000    298.150
 OXIDANT     N2O                          1.0000000         0.000      0.000

 O/F=    6.50000  %FUEL= 13.333333  R,EQ.RATIO= 1.405927  PHI,EQ.RATIO= 1.405927

                 CHAMBER   THROAT     EXIT
 Pinf/P            1.0000   1.8024   26.019
 P, BAR            8.1060   4.4974  0.31155
 T, K             2615.36  2326.36  1335.17
 RHO, KG/CU M    9.8628-1 6.1520-1 7.4253-2
 H, KJ/KG         -247.64  -704.59 -2208.06
 U, KJ/KG        -1069.52 -1435.65 -2627.64
 G, KJ/KG        -26160.4 -23753.9 -15436.8
 S, KJ/(KG)(K)     9.9079   9.9079   9.9079

 M, (1/n)          26.458   26.458   26.458
 Cp, KJ/(KG)(K)    1.5908   1.5707   1.4429
 GAMMAs            1.2462   1.2501   1.2784
 SON VEL,M/SEC     1012.0    956.0    732.4
 MACH NUMBER        0.000    1.000    2.704

 PERFORMANCE PARAMETERS

 Ae/At                      1.0000   4.0000
 CSTAR, M/SEC               1378.3   1378.3
 CF                         0.6936   1.4366
 Ivac, M/SEC                1720.7   2192.0
 Isp, M/SEC                  956.0   1980.1

 MASS FRACTIONS

 *CO             0.17529   *CO2            0.15218   *H              0.00012
 *H2             0.00357   H2O             0.11471   *NO             0.00072
 *N2             0.55128   *O              0.00007   *OH             0.00185
 *O2             0.00020

  * THERMODYNAMIC PROPERTIES FITTED TO 20000.K

 NOTE. WEIGHT FRACTION OF FUEL IN TOTAL FUELS AND OF OXIDANT IN TOTAL OXIDANTS

           THEORETICAL ROCKET PERFORMANCE ASSUMING FROZEN COMPOSITION

 Pin =   132.3 PSIA
 CASE = _______________

             REACTANT                    WT FRACTION      ENERGY      TEMP
                                          (SEE NOTE)     KJ/KG-MOL      K  
 FUEL        paraffin                     1.0000000  -1860600.000    298.150
 OXIDANT     N2O                          1.0000000         0.000      0.000

 O/F=    6.50000  %FUEL= 13.333333  R,EQ.RATIO= 1.405927  PHI,EQ.RATIO= 1.405927

                 CHAMBER   THROAT     EXIT
 Pinf/P            1.0000   1.8023   26.013
 P, BAR            9.1192   5.0597  0.35056
 T, K             2617.62  2328.46  1336.66
 RHO, KG/CU M    1.1088 0 6.9162-1 8.3474-2
 H, KJ/KG         -247.64  -704.89 -2209.48
 U, KJ/KG        -1070.08 -1436.47 -2629.45
 G, KJ/KG        -26085.8 -23688.8 -15403.4
 S, KJ/(KG)(K)     9.8709   9.8709   9.8709

 M, (1/n)          26.463   26.463   26.463
 Cp, KJ/(KG)(K)    1.5910   1.5708   1.4431
 GAMMAs            1.2461   1.2500   1.2783
 SON VEL,M/SEC     1012.3    956.3    732.7
 MACH NUMBER        0.000    1.000    2.703

 PERFORMANCE PARAMETERS

 Ae/At                      1.0000   4.0000
 CSTAR, M/SEC               1378.8   1378.8
 CF                         0.6936   1.4366
 Ivac, M/SEC                1721.3   2192.8
 Isp, M/SEC                  956.3   1980.8

 MASS FRACTIONS

 *CO             0.17526   *CO2            0.15224   *H              0.00011
 *H2             0.00357   H2O             0.11483   *NO             0.00069
 *N2             0.55130   *O              0.00006   *OH             0.00177
 *O2             0.00018

  * THERMODYNAMIC PROPERTIES FITTED TO 20000.K

 NOTE. WEIGHT FRACTION OF FUEL IN TOTAL FUELS AND OF OXIDANT IN TOTAL OXIDANTS

           THEORETICAL ROCKET PERFORMANCE ASSUMING FROZEN COMPOSITION

 Pin =   147.0 PSIA
 CASE = _______________

             REACTANT                    WT FRACTION      ENERGY      TEMP
                                          (SEE NOTE)     KJ/KG-MOL      K  
 FUEL        paraffin                     1.0000000  -1860600.000    298.150
 OXIDANT     N2O                          1.0000000         0.000      0.000

 O/F=    6.50000  %FUEL= 13.333333  R,EQ.RATIO= 1.405927  PHI,EQ.RATIO= 1.405927

                 CHAMBER   THROAT     EXIT
 Pinf/P            1.0000   1.8023   26.009
 P, BAR            10.133   5.6221  0.38958
 T, K             2619.56  2330.26  1337.93
 RHO, KG/CU M    1.2313 0 7.6801-1 9.2691-2
 H, KJ/KG         -247.64  -705.15 -2210.70
 U, KJ/KG        -1070.56 -1437.18 -2631.00
 G, KJ/KG        -26018.3 -23629.7 -15373.0
 S, KJ/(KG)(K)     9.8378   9.8378   9.8378

 M, (1/n)          26.467   26.467   26.467
 Cp, KJ/(KG)(K)    1.5911   1.5709   1.4433
 GAMMAs            1.2460   1.2500   1.2782
 SON VEL,M/SEC     1012.6    956.6    733.0
 MACH NUMBER        0.000    1.000    2.703

 PERFORMANCE PARAMETERS

 Ae/At                      1.0000   4.0000
 CSTAR, M/SEC               1379.2   1379.2
 CF                         0.6935   1.4366
 Ivac, M/SEC                1721.8   2193.6
 Isp, M/SEC                  956.6   1981.4

 MASS FRACTIONS

 *CO             0.17523   *CO2            0.15228   *H              0.00011
 *H2             0.00357   H2O             0.11492   *NO             0.00066
 *N2             0.55131   *O              0.00006   *OH             0.00170
 *O2             0.00017

  * THERMODYNAMIC PROPERTIES FITTED TO 20000.K

 NOTE. WEIGHT FRACTION OF FUEL IN TOTAL FUELS AND OF OXIDANT IN TOTAL OXIDANTS

           THEORETICAL ROCKET PERFORMANCE ASSUMING FROZEN COMPOSITION

 Pin =   161.7 PSIA
 CASE = _______________

             REACTANT                    WT FRACTION      ENERGY      TEMP
                                          (SEE NOTE)     KJ/KG-MOL      K  
 FUEL        paraffin                     1.0000000  -1860600.000    298.150
 OXIDANT     N2O                          1.0000000         0.000      0.000

 O/F=    6.50000  %FUEL= 13.333333  R,EQ.RATIO= 1.405927  PHI,EQ.RATIO= 1.405927

                 CHAMBER   THROAT     EXIT
 Pinf/P            1.0000   1.8022   26.005
 P, BAR            11.146   6.1844  0.42861
 T, K             2621.24  2331.82  1339.04
 RHO, KG/CU M    1.3537 0 8.4437-1 1.0190-1
 H, KJ/KG         -247.64  -705.37 -2211.76
 U, KJ/KG        -1070.98 -1437.80 -2632.35
 G, KJ/KG        -25956.4 -23575.5 -15344.9
 S, KJ/(KG)(K)     9.8078   9.8078   9.8078

 M, (1/n)          26.471   26.471   26.471
 Cp, KJ/(KG)(K)    1.5912   1.5711   1.4435
 GAMMAs            1.2459   1.2499   1.2781
 SON VEL,M/SEC     1012.8    956.8    733.2
 MACH NUMBER        0.000    1.000    2.703

 PERFORMANCE PARAMETERS

 Ae/At                      1.0000   4.0000
 CSTAR, M/SEC               1379.6   1379.6
 CF                         0.6935   1.4366
 Ivac, M/SEC                1722.3   2194.2
 Isp, M/SEC                  956.8   1982.0

 MASS FRACTIONS

 *CO             0.17520   *CO2            0.15232   *H              0.00010
 *H2             0.00357   H2O             0.11501   *NO             0.00064
 *N2             0.55132   *O              0.00005   *OH             0.00163
 *O2             0.00015

  * THERMODYNAMIC PROPERTIES FITTED TO 20000.K

 NOTE. WEIGHT FRACTION OF FUEL IN TOTAL FUELS AND OF OXIDANT IN TOTAL OXIDANTS

           THEORETICAL ROCKET PERFORMANCE ASSUMING FROZEN COMPOSITION

 Pin =   176.4 PSIA
 CASE = _______________

             REACTANT                    WT FRACTION      ENERGY      TEMP
                                          (SEE NOTE)     KJ/KG-MOL      K  
 FUEL        paraffin                     1.0000000  -1860600.000    298.150
 OXIDANT     N2O                          1.0000000         0.000      0.000

 O/F=    6.50000  %FUEL= 13.333333  R,EQ.RATIO= 1.405927  PHI,EQ.RATIO= 1.405927

                 CHAMBER   THROAT     EXIT
 Pinf/P            1.0000   1.8022   26.001
 P, BAR            12.159   6.7466  0.46763
 T, K             2622.73  2333.19  1340.03
 RHO, KG/CU M    1.4761 0 9.2070-1 1.1112-1
 H, KJ/KG         -247.64  -705.58 -2212.69
 U, KJ/KG        -1071.35 -1438.35 -2633.54
 G, KJ/KG        -25899.3 -23525.4 -15318.8
 S, KJ/(KG)(K)     9.7805   9.7805   9.7805

 M, (1/n)          26.474   26.474   26.474
 Cp, KJ/(KG)(K)    1.5913   1.5712   1.4437
 GAMMAs            1.2459   1.2498   1.2780
 SON VEL,M/SEC     1013.0    957.0    733.4
 MACH NUMBER        0.000    1.000    2.703

 PERFORMANCE PARAMETERS

 Ae/At                      1.0000   4.0000
 CSTAR, M/SEC               1379.9   1379.9
 CF                         0.6935   1.4366
 Ivac, M/SEC                1722.7   2194.7
 Isp, M/SEC                  957.0   1982.4

 MASS FRACTIONS

 *CO             0.17518   *CO2            0.15236   *H              0.00010
 *H2             0.00356   H2O             0.11508   *NO             0.00062
 *N2             0.55133   *O              0.00005   *OH             0.00158
 *O2             0.00014

  * THERMODYNAMIC PROPERTIES FITTED TO 20000.K

 NOTE. WEIGHT FRACTION OF FUEL IN TOTAL FUELS AND OF OXIDANT IN TOTAL OXIDANTS

           THEORETICAL ROCKET PERFORMANCE ASSUMING FROZEN COMPOSITION

 Pin =   191.0 PSIA
 CASE = _______________

             REACTANT                    WT FRACTION      ENERGY      TEMP
                                          (SEE NOTE)     KJ/KG-MOL      K  
 FUEL        paraffin                     1.0000000  -1860600.000    298.150
 OXIDANT     N2O                          1.0000000         0.000      0.000

 O/F=    6.50000  %FUEL= 13.333333  R,EQ.RATIO= 1.405927  PHI,EQ.RATIO= 1.405927

                 CHAMBER   THROAT     EXIT
 Pinf/P            1.0000   1.8022   25.998
 P, BAR            13.172   7.3090  0.50666
 T, K             2624.05  2334.42  1340.90
 RHO, KG/CU M    1.5985 0 9.9703-1 1.2032-1
 H, KJ/KG         -247.64  -705.75 -2213.52
 U, KJ/KG        -1071.67 -1438.83 -2634.61
 G, KJ/KG        -25846.3 -23478.9 -15294.5
 S, KJ/(KG)(K)     9.7554   9.7554   9.7554

 M, (1/n)          26.477   26.477   26.477
 Cp, KJ/(KG)(K)    1.5914   1.5713   1.4439
 GAMMAs            1.2458   1.2498   1.2779
 SON VEL,M/SEC     1013.2    957.2    733.6
 MACH NUMBER        0.000    1.000    2.703

 PERFORMANCE PARAMETERS

 Ae/At                      1.0000   4.0000
 CSTAR, M/SEC               1380.2   1380.2
 CF                         0.6935   1.4366
 Ivac, M/SEC                1723.1   2195.2
 Isp, M/SEC                  957.2   1982.9

 MASS FRACTIONS

 *CO             0.17516   *CO2            0.15239   *H              0.00010
 *H2             0.00356   H2O             0.11515   *NO             0.00060
 *N2             0.55134   *O              0.00005   *OH             0.00153
 *O2             0.00013

  * THERMODYNAMIC PROPERTIES FITTED TO 20000.K

 NOTE. WEIGHT FRACTION OF FUEL IN TOTAL FUELS AND OF OXIDANT IN TOTAL OXIDANTS

           THEORETICAL ROCKET PERFORMANCE ASSUMING FROZEN COMPOSITION

 Pin =   205.7 PSIA
 CASE = _______________

             REACTANT                    WT FRACTION      ENERGY      TEMP
                                          (SEE NOTE)     KJ/KG-MOL      K  
 FUEL        paraffin                     1.0000000  -1860600.000    298.150
 OXIDANT     N2O                          1.0000000         0.000      0.000

 O/F=    6.50000  %FUEL= 13.333333  R,EQ.RATIO= 1.405927  PHI,EQ.RATIO= 1.405927

                 CHAMBER   THROAT     EXIT
 Pinf/P            1.0000   1.8022   25.995
 P, BAR            14.185   7.8714  0.54570
 T, K             2625.24  2335.53  1341.68
 RHO, KG/CU M    1.7209 0 1.0733 0 1.2953-1
 H, KJ/KG         -247.64  -705.91 -2214.27
 U, KJ/KG        -1071.97 -1439.26 -2635.56
 G, KJ/KG        -25796.8 -23435.5 -15271.7
 S, KJ/(KG)(K)     9.7321   9.7321   9.7321

 M, (1/n)          26.479   26.479   26.479
 Cp, KJ/(KG)(K)    1.5914   1.5713   1.4440
 GAMMAs            1.2458   1.2497   1.2779
 SON VEL,M/SEC     1013.4    957.3    733.7
 MACH NUMBER        0.000    1.000    2.703

 PERFORMANCE PARAMETERS

 Ae/At                      1.0000   4.0000
 CSTAR, M/SEC               1380.5   1380.5
 CF                         0.6935   1.4366
 Ivac, M/SEC                1723.4   2195.7
 Isp, M/SEC                  957.4   1983.2

 MASS FRACTIONS

 *CO             0.17514   *CO2            0.15242   *H              0.00009
 *H2             0.00356   H2O             0.11521   *NO             0.00058
 *N2             0.55135   *O              0.00004   *OH             0.00148
 *O2             0.00012

  * THERMODYNAMIC PROPERTIES FITTED TO 20000.K

 NOTE. WEIGHT FRACTION OF FUEL IN TOTAL FUELS AND OF OXIDANT IN TOTAL OXIDANTS

           THEORETICAL ROCKET PERFORMANCE ASSUMING FROZEN COMPOSITION

 Pin =   220.4 PSIA
 CASE = _______________

             REACTANT                    WT FRACTION      ENERGY      TEMP
                                          (SEE NOTE)     KJ/KG-MOL      K  
 FUEL        paraffin                     1.0000000  -1860600.000    298.150
 OXIDANT     N2O                          1.0000000         0.000      0.000

 O/F=    6.50000  %FUEL= 13.333333  R,EQ.RATIO= 1.405927  PHI,EQ.RATIO= 1.405927

                 CHAMBER   THROAT     EXIT
 Pinf/P            1.0000   1.8021   25.993
 P, BAR            15.199   8.4337  0.58473
 T, K             2626.32  2336.53  1342.39
 RHO, KG/CU M    1.8432 0 1.1496 0 1.3873-1
 H, KJ/KG         -247.64  -706.05 -2214.95
 U, KJ/KG        -1072.24 -1439.66 -2636.42
 G, KJ/KG        -25750.4 -23394.8 -15250.2
 S, KJ/(KG)(K)     9.7104   9.7104   9.7104

 M, (1/n)          26.482   26.482   26.482
 Cp, KJ/(KG)(K)    1.5915   1.5714   1.4441
 GAMMAs            1.2458   1.2497   1.2778
 SON VEL,M/SEC     1013.5    957.5    733.9
 MACH NUMBER        0.000    1.000    2.703

 PERFORMANCE PARAMETERS

 Ae/At                      1.0000   4.0000
 CSTAR, M/SEC               1380.7   1380.7
 CF                         0.6935   1.4366
 Ivac, M/SEC                1723.7   2196.1
 Isp, M/SEC                  957.5   1983.6

 MASS FRACTIONS

 *CO             0.17512   *CO2            0.15245   *H              0.00009
 *H2             0.00356   H2O             0.11526   *NO             0.00056
 *N2             0.55135   *O              0.00004   *OH             0.00144
 *O2             0.00012

  * THERMODYNAMIC PROPERTIES FITTED TO 20000.K

 NOTE. WEIGHT FRACTION OF FUEL IN TOTAL FUELS AND OF OXIDANT IN TOTAL OXIDANTS

           THEORETICAL ROCKET PERFORMANCE ASSUMING FROZEN COMPOSITION

 Pin =   235.1 PSIA
 CASE = _______________

             REACTANT                    WT FRACTION      ENERGY      TEMP
                                          (SEE NOTE)     KJ/KG-MOL      K  
 FUEL        paraffin                     1.0000000  -1860600.000    298.150
 OXIDANT     N2O                          1.0000000         0.000      0.000

 O/F=    6.50000  %FUEL= 13.333333  R,EQ.RATIO= 1.405927  PHI,EQ.RATIO= 1.405927

                 CHAMBER   THROAT     EXIT
 Pinf/P            1.0000   1.8021   25.990
 P, BAR            16.212   8.9961  0.62377
 T, K             2627.30  2337.44  1343.04
 RHO, KG/CU M    1.9655 0 1.2259 0 1.4794-1
 H, KJ/KG         -247.64  -706.18 -2215.56
 U, KJ/KG        -1072.48 -1440.01 -2637.21
 G, KJ/KG        -25706.7 -23356.4 -15229.9
 S, KJ/(KG)(K)     9.6902   9.6902   9.6902

 M, (1/n)          26.484   26.484   26.484
 Cp, KJ/(KG)(K)    1.5916   1.5715   1.4442
 GAMMAs            1.2457   1.2497   1.2778
 SON VEL,M/SEC     1013.7    957.6    734.0
 MACH NUMBER        0.000    1.000    2.703

 PERFORMANCE PARAMETERS

 Ae/At                      1.0000   4.0000
 CSTAR, M/SEC               1381.0   1381.0
 CF                         0.6935   1.4366
 Ivac, M/SEC                1723.9   2196.4
 Isp, M/SEC                  957.6   1983.9

 MASS FRACTIONS

 *CO             0.17511   *CO2            0.15247   *H              0.00009
 *H2             0.00356   H2O             0.11531   *NO             0.00055
 *N2             0.55136   *O              0.00004   *OH             0.00140
 *O2             0.00011

  * THERMODYNAMIC PROPERTIES FITTED TO 20000.K

 NOTE. WEIGHT FRACTION OF FUEL IN TOTAL FUELS AND OF OXIDANT IN TOTAL OXIDANTS

           THEORETICAL ROCKET PERFORMANCE ASSUMING FROZEN COMPOSITION

 Pin =   249.8 PSIA
 CASE = _______________

             REACTANT                    WT FRACTION      ENERGY      TEMP
                                          (SEE NOTE)     KJ/KG-MOL      K  
 FUEL        paraffin                     1.0000000  -1860600.000    298.150
 OXIDANT     N2O                          1.0000000         0.000      0.000

 O/F=    6.50000  %FUEL= 13.333333  R,EQ.RATIO= 1.405927  PHI,EQ.RATIO= 1.405927

                 CHAMBER   THROAT     EXIT
 Pinf/P            1.0000   1.8021   25.988
 P, BAR            17.225   9.5585  0.66281
 T, K             2628.20  2338.28  1343.63
 RHO, KG/CU M    2.0878 0 1.3022 0 1.5714-1
 H, KJ/KG         -247.64  -706.29 -2216.13
 U, KJ/KG        -1072.70 -1440.34 -2637.93
 G, KJ/KG        -25665.4 -23320.1 -15210.6
 S, KJ/(KG)(K)     9.6711   9.6711   9.6711

 M, (1/n)          26.486   26.486   26.486
 Cp, KJ/(KG)(K)    1.5916   1.5715   1.4443
 GAMMAs            1.2457   1.2496   1.2777
 SON VEL,M/SEC     1013.8    957.7    734.1
 MACH NUMBER        0.000    1.000    2.703

 PERFORMANCE PARAMETERS

 Ae/At                      1.0000   4.0000
 CSTAR, M/SEC               1381.2   1381.2
 CF                         0.6934   1.4366
 Ivac, M/SEC                1724.2   2196.8
 Isp, M/SEC                  957.8   1984.2

 MASS FRACTIONS

 *CO             0.17510   *CO2            0.15249   *H              0.00009
 *H2             0.00356   H2O             0.11535   *NO             0.00054
 *N2             0.55137   *O              0.00004   *OH             0.00136
 *O2             0.00011

  * THERMODYNAMIC PROPERTIES FITTED TO 20000.K

 NOTE. WEIGHT FRACTION OF FUEL IN TOTAL FUELS AND OF OXIDANT IN TOTAL OXIDANTS

           THEORETICAL ROCKET PERFORMANCE ASSUMING FROZEN COMPOSITION

 Pin =   264.5 PSIA
 CASE = _______________

             REACTANT                    WT FRACTION      ENERGY      TEMP
                                          (SEE NOTE)     KJ/KG-MOL      K  
 FUEL        paraffin                     1.0000000  -1860600.000    298.150
 OXIDANT     N2O                          1.0000000         0.000      0.000

 O/F=    6.50000  %FUEL= 13.333333  R,EQ.RATIO= 1.405927  PHI,EQ.RATIO= 1.405927

                 CHAMBER   THROAT     EXIT
 Pinf/P            1.0000   1.8021   25.986
 P, BAR            18.238   10.121  0.70185
 T, K             2629.03  2339.05  1344.18
 RHO, KG/CU M    2.2100 0 1.3784 0 1.6634-1
 H, KJ/KG         -247.64  -706.40 -2216.64
 U, KJ/KG        -1072.91 -1440.64 -2638.59
 G, KJ/KG        -25626.2 -23285.7 -15192.3
 S, KJ/(KG)(K)     9.6532   9.6532   9.6532

 M, (1/n)          26.487   26.487   26.487
 Cp, KJ/(KG)(K)    1.5917   1.5716   1.4444
 GAMMAs            1.2457   1.2496   1.2777
 SON VEL,M/SEC     1013.9    957.9    734.2
 MACH NUMBER        0.000    1.000    2.703

 PERFORMANCE PARAMETERS

 Ae/At                      1.0000   4.0000
 CSTAR, M/SEC               1381.3   1381.3
 CF                         0.6934   1.4366
 Ivac, M/SEC                1724.4   2197.1
 Isp, M/SEC                  957.9   1984.4

 MASS FRACTIONS

 *CO             0.17508   *CO2            0.15251   *H              0.00008
 *H2             0.00356   H2O             0.11540   *NO             0.00052
 *N2             0.55137   *O              0.00003   *OH             0.00133
 *O2             0.00010

  * THERMODYNAMIC PROPERTIES FITTED TO 20000.K

 NOTE. WEIGHT FRACTION OF FUEL IN TOTAL FUELS AND OF OXIDANT IN TOTAL OXIDANTS

           THEORETICAL ROCKET PERFORMANCE ASSUMING FROZEN COMPOSITION

 Pin =   279.2 PSIA
 CASE = _______________

             REACTANT                    WT FRACTION      ENERGY      TEMP
                                          (SEE NOTE)     KJ/KG-MOL      K  
 FUEL        paraffin                     1.0000000  -1860600.000    298.150
 OXIDANT     N2O                          1.0000000         0.000      0.000

 O/F=    6.50000  %FUEL= 13.333333  R,EQ.RATIO= 1.405927  PHI,EQ.RATIO= 1.405927

                 CHAMBER   THROAT     EXIT
 Pinf/P            1.0000   1.8020   25.984
 P, BAR            19.252   10.683  0.74090
 T, K             2629.79  2339.76  1344.69
 RHO, KG/CU M    2.3323 0 1.4547 0 1.7554-1
 H, KJ/KG         -247.64  -706.50 -2217.12
 U, KJ/KG        -1073.10 -1440.92 -2639.20
 G, KJ/KG        -25588.9 -23252.9 -15174.8
 S, KJ/(KG)(K)     9.6362   9.6362   9.6362

 M, (1/n)          26.489   26.489   26.489
 Cp, KJ/(KG)(K)    1.5917   1.5716   1.4445
 GAMMAs            1.2456   1.2496   1.2776
 SON VEL,M/SEC     1014.0    958.0    734.3
 MACH NUMBER        0.000    1.000    2.703

 PERFORMANCE PARAMETERS

 Ae/At                     1.00000   4.0000
 CSTAR, M/SEC               1381.5   1381.5
 CF                         0.6934   1.4366
 Ivac, M/SEC                1724.6   2197.4
 Isp, M/SEC                  958.0   1984.7

 MASS FRACTIONS

 *CO             0.17507   *CO2            0.15253   *H              0.00008
 *H2             0.00356   H2O             0.11543   *NO             0.00051
 *N2             0.55138   *O              0.00003   *OH             0.00130
 *O2             0.00010

  * THERMODYNAMIC PROPERTIES FITTED TO 20000.K

 NOTE. WEIGHT FRACTION OF FUEL IN TOTAL FUELS AND OF OXIDANT IN TOTAL OXIDANTS

           THEORETICAL ROCKET PERFORMANCE ASSUMING FROZEN COMPOSITION

 Pin =   293.9 PSIA
 CASE = _______________

             REACTANT                    WT FRACTION      ENERGY      TEMP
                                          (SEE NOTE)     KJ/KG-MOL      K  
 FUEL        paraffin                     1.0000000  -1860600.000    298.150
 OXIDANT     N2O                          1.0000000         0.000      0.000

 O/F=    6.50000  %FUEL= 13.333333  R,EQ.RATIO= 1.405927  PHI,EQ.RATIO= 1.405927

                 CHAMBER   THROAT     EXIT
 Pinf/P            1.0000   1.8020   25.983
 P, BAR            20.265   11.246  0.77994
 T, K             2630.50  2340.42  1345.15
 RHO, KG/CU M    2.4545 0 1.5309 0 1.8473-1
 H, KJ/KG         -247.64  -706.59 -2217.57
 U, KJ/KG        -1073.27 -1441.18 -2639.77
 G, KJ/KG        -25553.4 -23221.7 -15158.1
 S, KJ/(KG)(K)     9.6201   9.6201   9.6201

 M, (1/n)          26.490   26.490   26.490
 Cp, KJ/(KG)(K)    1.5918   1.5717   1.4446
 GAMMAs            1.2456   1.2495   1.2776
 SON VEL,M/SEC     1014.1    958.1    734.4
 MACH NUMBER        0.000    1.000    2.703

 PERFORMANCE PARAMETERS

 Ae/At                      1.0000   4.0000
 CSTAR, M/SEC               1381.7   1381.7
 CF                         0.6934   1.4366
 Ivac, M/SEC                1724.8   2197.6
 Isp, M/SEC                  958.1   1984.9

 MASS FRACTIONS

 *CO             0.17506   *CO2            0.15254   *H              0.00008
 *H2             0.00356   H2O             0.11547   *NO             0.00050
 *N2             0.55138   *O              0.00003   *OH             0.00127
 *O2             0.00009

  * THERMODYNAMIC PROPERTIES FITTED TO 20000.K

 NOTE. WEIGHT FRACTION OF FUEL IN TOTAL FUELS AND OF OXIDANT IN TOTAL OXIDANTS

           THEORETICAL ROCKET PERFORMANCE ASSUMING FROZEN COMPOSITION

 Pin =   308.6 PSIA
 CASE = _______________

             REACTANT                    WT FRACTION      ENERGY      TEMP
                                          (SEE NOTE)     KJ/KG-MOL      K  
 FUEL        paraffin                     1.0000000  -1860600.000    298.150
 OXIDANT     N2O                          1.0000000         0.000      0.000

 O/F=    6.50000  %FUEL= 13.333333  R,EQ.RATIO= 1.405927  PHI,EQ.RATIO= 1.405927

                 CHAMBER   THROAT     EXIT
 Pinf/P            1.0000   1.8020   25.981
 P, BAR            21.278   11.808  0.81899
 T, K             2631.17  2341.03  1345.59
 RHO, KG/CU M    2.5767 0 1.6071 0 1.9393-1
 H, KJ/KG         -247.64  -706.68 -2217.99
 U, KJ/KG        -1073.44 -1441.42 -2640.30
[...]

 Pin =   205.7 PSIA
 CASE = _______________

             REACTANT                    WT FRACTION      ENERGY      TEMP
                                          (SEE NOTE)     KJ/KG-MOL      K  
 FUEL        paraffin                     1.0000000  -1860600.000    298.150
 OXIDANT     N2O                          1.0000000         0.000      0.000

 O/F=   11.00000  %FUEL=  8.333333  R,EQ.RATIO= 0.830775  PHI,EQ.RATIO= 0.830775

                 CHAMBER   THROAT     EXIT
 Pinf/P            1.0000   1.7957   25.356
 P, BAR            14.185   7.8997  0.55945
 T, K             2666.18  2382.84  1404.52
 RHO, KG/CU M    1.8671 0 1.1634 0 1.3978-1
 H, KJ/KG         -154.78  -575.50 -1976.34
 U, KJ/KG         -914.53 -1254.51 -2376.57
 G, KJ/KG        -24321.1 -22173.6 -14706.9
 S, KJ/(KG)(K)     9.0640   9.0640   9.0640

 M, (1/n)          29.178   29.178   29.178
 Cp, KJ/(KG)(K)    1.4929   1.4762   1.3712
 GAMMAs            1.2359   1.2392   1.2623
 SON VEL,M/SEC      969.0    917.3    710.8
 MACH NUMBER        0.000    1.000    2.685

 PERFORMANCE PARAMETERS

 Ae/At                      1.0000   4.0000
 CSTAR, M/SEC               1329.2   1329.2
 CF                         0.6901   1.4360
 Ivac, M/SEC                1657.5   2118.4
 Isp, M/SEC                  917.3   1908.7

 MASS FRACTIONS

 *CO             0.01535   *CO2            0.24314   *H              0.00002
 HO2             0.00002   *H2             0.00015   H2O             0.08797
 *NO             0.01331   NO2             0.00003   *N2             0.57722
 *O              0.00102   *OH             0.00648   *O2             0.05529

  * THERMODYNAMIC PROPERTIES FITTED TO 20000.K

 NOTE. WEIGHT FRACTION OF FUEL IN TOTAL FUELS AND OF OXIDANT IN TOTAL OXIDANTS

           THEORETICAL ROCKET PERFORMANCE ASSUMING FROZEN COMPOSITION

 Pin =   220.4 PSIA
 CASE = _______________

             REACTANT                    WT FRACTION      ENERGY      TEMP
                                          (SEE NOTE)     KJ/KG-MOL      K  
 FUEL        paraffin                     1.0000000  -1860600.000    298.150
 OXIDANT     N2O                          1.0000000         0.000      0.000

 O/F=   11.00000  %FUEL=  8.333333  R,EQ.RATIO= 0.830775  PHI,EQ.RATIO= 0.830775

                 CHAMBER   THROAT     EXIT
 Pinf/P            1.0000   1.7956   25.349
 P, BAR            15.199   8.4643  0.59957
 T, K             2669.01  2385.48  1406.47
 RHO, KG/CU M    1.9988 0 1.2455 0 1.4963-1
 H, KJ/KG         -154.78  -575.83 -1977.94
 U, KJ/KG         -915.16 -1255.43 -2378.64
 G, KJ/KG        -24294.2 -22150.9 -14698.5
 S, KJ/(KG)(K)     9.0443   9.0443   9.0443

 M, (1/n)          29.185   29.185   29.185
 Cp, KJ/(KG)(K)    1.4931   1.4764   1.3716
 GAMMAs            1.2358   1.2391   1.2622
 SON VEL,M/SEC      969.4    917.7    711.2
 MACH NUMBER        0.000    1.000    2.685

 PERFORMANCE PARAMETERS

 Ae/At                      1.0000   4.0000
 CSTAR, M/SEC               1329.8   1329.8
 CF                         0.6901   1.4359
 Ivac, M/SEC                1658.2   2119.4
 Isp, M/SEC                  917.7   1909.5

 MASS FRACTIONS

 *CO             0.01507   *CO2            0.24358   *H              0.00002
 HO2             0.00002   *H2             0.00014   H2O             0.08804
 *NO             0.01335   NO2             0.00003   *N2             0.57720
 *O              0.00100   *OH             0.00641   *O2             0.05514

  * THERMODYNAMIC PROPERTIES FITTED TO 20000.K

 NOTE. WEIGHT FRACTION OF FUEL IN TOTAL FUELS AND OF OXIDANT IN TOTAL OXIDANTS

           THEORETICAL ROCKET PERFORMANCE ASSUMING FROZEN COMPOSITION

 Pin =   235.1 PSIA
 CASE = _______________

             REACTANT                    WT FRACTION      ENERGY      TEMP
                                          (SEE NOTE)     KJ/KG-MOL      K  
 FUEL        paraffin                     1.0000000  -1860600.000    298.150
 OXIDANT     N2O                          1.0000000         0.000      0.000

 O/F=   11.00000  %FUEL=  8.333333  R,EQ.RATIO= 0.830775  PHI,EQ.RATIO= 0.830775

                 CHAMBER   THROAT     EXIT
 Pinf/P            1.0000   1.7956   25.343
 P, BAR            16.212   9.0289  0.63970
 T, K             2671.62  2387.93  1408.27
 RHO, KG/CU M    2.1305 0 1.3275 0 1.5948-1
 H, KJ/KG         -154.78  -576.13 -1979.43
 U, KJ/KG         -915.74 -1256.29 -2380.55
 G, KJ/KG        -24268.7 -22129.5 -14690.4
 S, KJ/(KG)(K)     9.0260   9.0260   9.0260

 M, (1/n)          29.191   29.191   29.191
 Cp, KJ/(KG)(K)    1.4933   1.4766   1.3719
 GAMMAs            1.2357   1.2390   1.2620
 SON VEL,M/SEC      969.7    918.0    711.5
 MACH NUMBER        0.000    1.000    2.685

 PERFORMANCE PARAMETERS

 Ae/At                      1.0000   4.0000
 CSTAR, M/SEC               1330.4   1330.4
 CF                         0.6900   1.4359
 Ivac, M/SEC                1658.9   2120.3
 Isp, M/SEC                  918.0   1910.3

 MASS FRACTIONS

 *CO             0.01481   *CO2            0.24398   *H              0.00002
 HO2             0.00002   *H2             0.00014   H2O             0.08810
 *NO             0.01338   NO2             0.00003   *N2             0.57718
 *O              0.00097   *OH             0.00635   *O2             0.05499

  * THERMODYNAMIC PROPERTIES FITTED TO 20000.K

 NOTE. WEIGHT FRACTION OF FUEL IN TOTAL FUELS AND OF OXIDANT IN TOTAL OXIDANTS

           THEORETICAL ROCKET PERFORMANCE ASSUMING FROZEN COMPOSITION

 Pin =   249.8 PSIA
 CASE = _______________

             REACTANT                    WT FRACTION      ENERGY      TEMP
                                          (SEE NOTE)     KJ/KG-MOL      K  
 FUEL        paraffin                     1.0000000  -1860600.000    298.150
 OXIDANT     N2O                          1.0000000         0.000      0.000

 O/F=   11.00000  %FUEL=  8.333333  R,EQ.RATIO= 0.830775  PHI,EQ.RATIO= 0.830775

                 CHAMBER   THROAT     EXIT
 Pinf/P            1.0000   1.7955   25.337
 P, BAR            17.225   9.5936  0.67984
 T, K             2674.06  2390.21  1409.95
 RHO, KG/CU M    2.2620 0 1.4094 0 1.6932-1
 H, KJ/KG         -154.78  -576.42 -1980.81
 U, KJ/KG         -916.28 -1257.09 -2382.33
 G, KJ/KG        -24244.6 -22109.1 -14682.6
 S, KJ/(KG)(K)     9.0087   9.0087   9.0087

 M, (1/n)          29.197   29.197   29.197
 Cp, KJ/(KG)(K)    1.4935   1.4768   1.3722
 GAMMAs            1.2356   1.2389   1.2619
 SON VEL,M/SEC      970.0    918.3    711.8
 MACH NUMBER        0.000    1.000    2.685

 PERFORMANCE PARAMETERS

 Ae/At                      1.0000   4.0000
 CSTAR, M/SEC               1330.9   1330.9
 CF                         0.6900   1.4359
 Ivac, M/SEC                1659.5   2121.1
 Isp, M/SEC                  918.3   1911.0

 MASS FRACTIONS

 *CO             0.01457   *CO2            0.24436   *H              0.00002
 HO2             0.00002   *H2             0.00014   H2O             0.08816
 *NO             0.01341   NO2             0.00003   *N2             0.57717
 *O              0.00095   *OH             0.00630   *O2             0.05486

  * THERMODYNAMIC PROPERTIES FITTED TO 20000.K

 NOTE. WEIGHT FRACTION OF FUEL IN TOTAL FUELS AND OF OXIDANT IN TOTAL OXIDANTS

           THEORETICAL ROCKET PERFORMANCE ASSUMING FROZEN COMPOSITION

 Pin =   264.5 PSIA
 CASE = _______________

             REACTANT                    WT FRACTION      ENERGY      TEMP
                                          (SEE NOTE)     KJ/KG-MOL      K  
 FUEL        paraffin                     1.0000000  -1860600.000    298.150
 OXIDANT     N2O                          1.0000000         0.000      0.000

 O/F=   11.00000  %FUEL=  8.333333  R,EQ.RATIO= 0.830775  PHI,EQ.RATIO= 0.830775

                 CHAMBER   THROAT     EXIT
 Pinf/P            1.0000   1.7954   25.332
 P, BAR            18.238   10.158  0.71998
 T, K             2676.34  2392.34  1411.52
 RHO, KG/CU M    2.3935 0 1.4913 0 1.7915-1
 H, KJ/KG         -154.78  -576.68 -1982.11
 U, KJ/KG         -916.79 -1257.83 -2383.99
 G, KJ/KG        -24221.5 -22089.6 -14675.1
 S, KJ/(KG)(K)     8.9924   8.9924   8.9924

 M, (1/n)          29.202   29.202   29.202
 Cp, KJ/(KG)(K)    1.4936   1.4770   1.3725
 GAMMAs            1.2355   1.2388   1.2617
 SON VEL,M/SEC      970.3    918.6    712.1
 MACH NUMBER        0.000    1.000    2.685

 PERFORMANCE PARAMETERS

 Ae/At                      1.0000   4.0000
 CSTAR, M/SEC               1331.3   1331.3
 CF                         0.6900   1.4359
 Ivac, M/SEC                1660.1   2121.9
 Isp, M/SEC                  918.6   1911.7

 MASS FRACTIONS

 *CO             0.01434   *CO2            0.24471   *H              0.00002
 HO2             0.00002   *H2             0.00014   H2O             0.08821
 *NO             0.01345   NO2             0.00003   *N2             0.57715
 *O              0.00094   *OH             0.00624   *O2             0.05473

  * THERMODYNAMIC PROPERTIES FITTED TO 20000.K

 NOTE. WEIGHT FRACTION OF FUEL IN TOTAL FUELS AND OF OXIDANT IN TOTAL OXIDANTS

           THEORETICAL ROCKET PERFORMANCE ASSUMING FROZEN COMPOSITION

 Pin =   279.2 PSIA
 CASE = _______________

             REACTANT                    WT FRACTION      ENERGY      TEMP
                                          (SEE NOTE)     KJ/KG-MOL      K  
 FUEL        paraffin                     1.0000000  -1860600.000    298.150
 OXIDANT     N2O                          1.0000000         0.000      0.000

 O/F=   11.00000  %FUEL=  8.333333  R,EQ.RATIO= 0.830775  PHI,EQ.RATIO= 0.830775

                 CHAMBER   THROAT     EXIT
 Pinf/P            1.0000   1.7954   25.327
 P, BAR            19.252   10.723  0.76013
 T, K             2678.47  2394.34  1412.99
 RHO, KG/CU M    2.5249 0 1.5732 0 1.8898-1
 H, KJ/KG         -154.78  -576.93 -1983.32
 U, KJ/KG         -917.26 -1258.53 -2385.55
 G, KJ/KG        -24199.5 -22070.9 -14667.8
 S, KJ/(KG)(K)     8.9770   8.9770   8.9770

 M, (1/n)          29.207   29.207   29.207
 Cp, KJ/(KG)(K)    1.4938   1.4771   1.3728
 GAMMAs            1.2354   1.2387   1.2616
 SON VEL,M/SEC      970.6    918.9    712.4
 MACH NUMBER        0.000    1.000    2.684

 PERFORMANCE PARAMETERS

 Ae/At                      1.0000   4.0000
 CSTAR, M/SEC               1331.8   1331.8
 CF                         0.6899   1.4359
 Ivac, M/SEC                1660.6   2122.7
 Isp, M/SEC                  918.9   1912.3

 MASS FRACTIONS

 *CO             0.01413   *CO2            0.24505   *H              0.00002
 HO2             0.00002   *H2             0.00013   H2O             0.08827
 *NO             0.01348   NO2             0.00003   *N2             0.57714
 *O              0.00092   *OH             0.00619   *O2             0.05461

  * THERMODYNAMIC PROPERTIES FITTED TO 20000.K

 NOTE. WEIGHT FRACTION OF FUEL IN TOTAL FUELS AND OF OXIDANT IN TOTAL OXIDANTS

           THEORETICAL ROCKET PERFORMANCE ASSUMING FROZEN COMPOSITION

 Pin =   293.9 PSIA
 CASE = _______________

             REACTANT                    WT FRACTION      ENERGY      TEMP
                                          (SEE NOTE)     KJ/KG-MOL      K  
 FUEL        paraffin                     1.0000000  -1860600.000    298.150
 OXIDANT     N2O                          1.0000000         0.000      0.000

 O/F=   11.00000  %FUEL=  8.333333  R,EQ.RATIO= 0.830775  PHI,EQ.RATIO= 0.830775

                 CHAMBER   THROAT     EXIT
 Pinf/P            1.0000   1.7953   25.322
 P, BAR            20.265   11.288  0.80029
 T, K             2680.48  2396.22  1414.38
 RHO, KG/CU M    2.6562 0 1.6550 0 1.9880-1
 H, KJ/KG         -154.78  -577.17 -1984.46
 U, KJ/KG         -917.71 -1259.19 -2387.02
 G, KJ/KG        -24178.4 -22053.1 -14660.7
 S, KJ/(KG)(K)     8.9624   8.9624   8.9624

 M, (1/n)          29.212   29.212   29.212
 Cp, KJ/(KG)(K)    1.4939   1.4773   1.3730
 GAMMAs            1.2354   1.2386   1.2615
 SON VEL,M/SEC      970.8    919.1    712.6
 MACH NUMBER        0.000    1.000    2.684

 PERFORMANCE PARAMETERS

 Ae/At                      1.0000   4.0000
 CSTAR, M/SEC               1332.2   1332.2
 CF                         0.6899   1.4359
 Ivac, M/SEC                1661.2   2123.4
 Isp, M/SEC                  919.1   1912.9

 MASS FRACTIONS

 *CO             0.01393   *CO2            0.24536   *H              0.00002
 HO2             0.00002   *H2             0.00013   H2O             0.08831
 *NO             0.01350   NO2             0.00003   *N2             0.57713
 *O              0.00090   *OH             0.00615   *O2             0.05450

  * THERMODYNAMIC PROPERTIES FITTED TO 20000.K

 NOTE. WEIGHT FRACTION OF FUEL IN TOTAL FUELS AND OF OXIDANT IN TOTAL OXIDANTS

           THEORETICAL ROCKET PERFORMANCE ASSUMING FROZEN COMPOSITION

 Pin =   308.6 PSIA
 CASE = _______________

             REACTANT                    WT FRACTION      ENERGY      TEMP
                                          (SEE NOTE)     KJ/KG-MOL      K  
 FUEL        paraffin                     1.0000000  -1860600.000    298.150
 OXIDANT     N2O                          1.0000000         0.000      0.000

 O/F=   11.00000  %FUEL=  8.333333  R,EQ.RATIO= 0.830775  PHI,EQ.RATIO= 0.830775

                 CHAMBER   THROAT     EXIT
 Pinf/P            1.0000   1.7953   25.318
 P, BAR            21.278   11.852  0.84046
 T, K             2682.38  2397.99  1415.68
 RHO, KG/CU M    2.7875 0 1.7368 0 2.0861-1
 H, KJ/KG         -154.78  -577.39 -1985.53
 U, KJ/KG         -918.13 -1259.81 -2388.41
 G, KJ/KG        -24158.1 -22035.9 -14653.8
 S, KJ/(KG)(K)     8.9485   8.9485   8.9485

 M, (1/n)          29.217   29.217   29.217
 Cp, KJ/(KG)(K)    1.4940   1.4774   1.3733
 GAMMAs            1.2353   1.2386   1.2614
 SON VEL,M/SEC      971.1    919.4    712.9
 MACH NUMBER        0.000    1.000    2.684

 PERFORMANCE PARAMETERS

 Ae/At                      1.0000   4.0000
 CSTAR, M/SEC               1332.6   1332.6
 CF                         0.6899   1.4359
 Ivac, M/SEC                1661.6   2124.0
 Isp, M/SEC                  919.4   1913.5

 MASS FRACTIONS

 *CO             0.01375   *CO2            0.24566   *H              0.00002
 HO2             0.00002   *H2             0.00013   H2O             0.08836
 *NO             0.01353   NO2             0.00003   *N2             0.57711
 *O              0.00089   *OH             0.00610   *O2             0.05440

  * THERMODYNAMIC PROPERTIES FITTED TO 20000.K

 NOTE. WEIGHT FRACTION OF FUEL IN TOTAL FUELS AND OF OXIDANT IN TOTAL OXIDANTS

           THEORETICAL ROCKET PERFORMANCE ASSUMING FROZEN COMPOSITION

 Pin =   323.3 PSIA
 CASE = _______________

             REACTANT                    WT FRACTION      ENERGY      TEMP
                                          (SEE NOTE)     KJ/KG-MOL      K  
 FUEL        paraffin                     1.0000000  -1860600.000    298.150
 OXIDANT     N2O                          1.0000000         0.000      0.000

 O/F=   11.00000  %FUEL=  8.333333  R,EQ.RATIO= 0.830775  PHI,EQ.RATIO= 0.830775

                 CHAMBER   THROAT     EXIT
 Pinf/P            1.0000   1.7953   25.313
 P, BAR            22.291   12.417  0.88063
 T, K             2684.17  2399.67  1416.92
 RHO, KG/CU M    2.9187 0 1.8185 0 2.1843-1
 H, KJ/KG         -154.78  -577.60 -1986.55
 U, KJ/KG         -918.52 -1260.39 -2389.72
 G, KJ/KG        -24138.7 -22019.4 -14647.2
 S, KJ/(KG)(K)     8.9353   8.9353   8.9353

 M, (1/n)          29.221   29.221   29.221
 Cp, KJ/(KG)(K)    1.4942   1.4776   1.3735
 GAMMAs            1.2352   1.2385   1.2613
 SON VEL,M/SEC      971.3    919.6    713.1
 MACH NUMBER        0.000    1.000    2.684

 PERFORMANCE PARAMETERS

 Ae/At                      1.0000   4.0000
 CSTAR, M/SEC               1333.0   1333.0
 CF                         0.6899   1.4359
 Ivac, M/SEC                1662.1   2124.7
 Isp, M/SEC                  919.6   1914.0

 MASS FRACTIONS

 *CO             0.01357   *CO2            0.24594   *H              0.00002
 HO2             0.00002   *H2             0.00013   H2O             0.08840
 *NO             0.01355   NO2             0.00004   *N2             0.57710
 *O              0.00087   *OH             0.00606   *O2             0.05430

  * THERMODYNAMIC PROPERTIES FITTED TO 20000.K

 NOTE. WEIGHT FRACTION OF FUEL IN TOTAL FUELS AND OF OXIDANT IN TOTAL OXIDANTS

           THEORETICAL ROCKET PERFORMANCE ASSUMING FROZEN COMPOSITION

 Pin =   338.0 PSIA
 CASE = _______________

             REACTANT                    WT FRACTION      ENERGY      TEMP
                                          (SEE NOTE)     KJ/KG-MOL      K  
 FUEL        paraffin                     1.0000000  -1860600.000    298.150
 OXIDANT     N2O                          1.0000000         0.000      0.000

 O/F=   11.00000  %FUEL=  8.333333  R,EQ.RATIO= 0.830775  PHI,EQ.RATIO= 0.830775

                 CHAMBER   THROAT     EXIT
 Pinf/P            1.0000   1.7952   25.309
 P, BAR            23.305   12.982  0.92080
 T, K             2685.87  2401.26  1418.10
 RHO, KG/CU M    3.0499 0 1.9002 0 2.2823-1
 H, KJ/KG         -154.78  -577.80 -1987.51
 U, KJ/KG         -918.90 -1260.95 -2390.96
 G, KJ/KG        -24119.9 -22003.4 -14640.7
 S, KJ/(KG)(K)     8.9227   8.9227   8.9227

 M, (1/n)          29.225   29.225   29.225
 Cp, KJ/(KG)(K)    1.4943   1.4777   1.3737
 GAMMAs            1.2352   1.2384   1.2612
 SON VEL,M/SEC      971.5    919.8    713.3
 MACH NUMBER        0.000    1.000    2.684

 PERFORMANCE PARAMETERS

 Ae/At                      1.0000   4.0000
 CSTAR, M/SEC               1333.3   1333.3
 CF                         0.6899   1.4359
 Ivac, M/SEC                1662.5   2125.3
 Isp, M/SEC                  919.8   1914.5

 MASS FRACTIONS

 *CO             0.01340   *CO2            0.24620   *H              0.00002
 HO2             0.00002   *H2             0.00013   H2O             0.08844
 *NO             0.01358   NO2             0.00004   *N2             0.57709
 *O              0.00086   *OH             0.00602   *O2             0.05421

  * THERMODYNAMIC PROPERTIES FITTED TO 20000.K

 NOTE. WEIGHT FRACTION OF FUEL IN TOTAL FUELS AND OF OXIDANT IN TOTAL OXIDANTS

           THEORETICAL ROCKET PERFORMANCE ASSUMING FROZEN COMPOSITION

 Pin =   352.7 PSIA
 CASE = _______________

             REACTANT                    WT FRACTION      ENERGY      TEMP
                                          (SEE NOTE)     KJ/KG-MOL      K  
 FUEL        paraffin                     1.0000000  -1860600.000    298.150
 OXIDANT     N2O                          1.0000000         0.000      0.000

 O/F=   11.00000  %FUEL=  8.333333  R,EQ.RATIO= 0.830775  PHI,EQ.RATIO= 0.830775

                 CHAMBER   THROAT     EXIT
 Pinf/P            1.0000   1.7952   25.305
 P, BAR            24.318   13.546  0.96098
 T, K             2687.49  2402.78  1419.22
 RHO, KG/CU M    3.1810 0 1.9819 0 2.3804-1
 H, KJ/KG         -154.78  -577.98 -1988.43
 U, KJ/KG         -919.26 -1261.48 -2392.14
 G, KJ/KG        -24101.8 -21988.1 -14634.4
 S, KJ/(KG)(K)     8.9105   8.9105   8.9105

 M, (1/n)          29.229   29.229   29.229
 Cp, KJ/(KG)(K)    1.4944   1.4778   1.3739
 GAMMAs            1.2351   1.2384   1.2611
 SON VEL,M/SEC      971.7    920.0    713.5
 MACH NUMBER        0.000    1.000    2.684

 PERFORMANCE PARAMETERS

 Ae/At                      1.0000   4.0000
 CSTAR, M/SEC               1333.7   1333.7
 CF                         0.6898   1.4359
 Ivac, M/SEC                1662.9   2125.8
 Isp, M/SEC                  920.0   1915.0

 MASS FRACTIONS

 *CO             0.01324   *CO2            0.24646   *H              0.00002
 HO2             0.00002   *H2             0.00012   H2O             0.08848
 *NO             0.01360   NO2             0.00004   *N2             0.57708
 *O              0.00084   *OH             0.00598   *O2             0.05412

  * THERMODYNAMIC PROPERTIES FITTED TO 20000.K

 NOTE. WEIGHT FRACTION OF FUEL IN TOTAL FUELS AND OF OXIDANT IN TOTAL OXIDANTS