         NASA-GLENN CHEMICAL EQUILIBRIUM PROGRAM CEA2, FEBRUARY 5, 2004
                   BY  BONNIE MCBRIDE AND SANFORD GORDON
      REFS: NASA RP-1311, PART I, 1994 AND NASA RP-1311, PART II, 1996

 *******************************************************************************

  
 ### CEA analysis performed on Tue 12-Oct-2021 14:55:53
  
 # Problem Type: "Rocket" (Infinite Area Combustor)
  
 prob case=_______________2398 ro frozen
  
 # Pressure (24 values):
 p,atm= 49, 50, 51, 52, 53, 54, 55, 56, 57, 58, 59, 60, 61, 62, 63, 64, 65, 66, 6
 7, 68, 69, 70, 71, 72
 # Supersonic Area Ratio (1 value):
 supar= 4
  
 # Oxidizer/Fuel Wt. ratio (31 values):
 o/f= 6.3, 6.5, 6.7, 6.9, 7.1, 7.3, 7.5, 7.7, 7.9, 8.1, 8.3, 8.5, 8.7, 8.9, 9.1, 
 9.3, 9.5, 9.7, 9.9, 10.1, 10.3, 10.5, 10.7, 10.9, 11
  
 # You selected the following fuels and oxidizers:
 reac
 fuel paraffin          wt%=100.0000
 oxid N2O               wt%=100.0000
  
 # You selected these options for output:
 # short version of output
 output short
 # Proportions of any products will be expressed as Mass Fractions.
 output massf
 # Heat will be expressed as siunits
 output siunits
  
 # Input prepared by this script:/var/www/sites/cearun.grc.nasa.gov/cgi-bin/CEARU
 N/prepareInputFile.cgi
  
 ### IMPORTANT:  The following line is the end of your CEA input file!
 end

           THEORETICAL ROCKET PERFORMANCE ASSUMING FROZEN COMPOSITION

 Pin =   720.1 PSIA
 CASE = _______________

             REACTANT                    WT FRACTION      ENERGY      TEMP
                                          (SEE NOTE)     KJ/KG-MOL      K  
 FUEL        paraffin                     1.0000000  -1860600.000    298.150
 OXIDANT     N2O                          1.0000000         0.000      0.000

 O/F=    6.30000  %FUEL= 13.698630  R,EQ.RATIO= 1.450560  PHI,EQ.RATIO= 1.450560

                 CHAMBER   THROAT     EXIT
 Pinf/P            1.0000   1.8034   26.125
 P, BAR            49.649   27.531   1.9005
 T, K             2590.25  2302.34  1315.85
 RHO, KG/CU M    6.0485 0 3.7733 0 4.5576-1
 H, KJ/KG         -254.43  -711.10 -2210.87
 U, KJ/KG        -1075.29 -1440.71 -2627.87
 G, KJ/KG        -24532.5 -22290.6 -14544.1
 S, KJ/(KG)(K)     9.3729   9.3729   9.3729

 M, (1/n)          26.237   26.237   26.237
 Cp, KJ/(KG)(K)    1.5961   1.5754   1.4448
 GAMMAs            1.2477   1.2518   1.2810
 SON VEL,M/SEC     1012.0    955.7    730.9
 MACH NUMBER        0.000    1.000    2.707

 PERFORMANCE PARAMETERS

 Ae/At                      1.0000   4.0000
 CSTAR, M/SEC               1376.8   1376.8
 CF                         0.6941   1.4367
 Ivac, M/SEC                1719.1   2188.9
 Isp, M/SEC                  955.7   1978.1

 MASS FRACTIONS

 *CO             0.18942   *CO2            0.14169   *H              0.00005
 *H2             0.00418   H2O             0.11461   *NO             0.00021
 *N2             0.54919   *O              0.00001   *OH             0.00061
 *O2             0.00002

  * THERMODYNAMIC PROPERTIES FITTED TO 20000.K

 NOTE. WEIGHT FRACTION OF FUEL IN TOTAL FUELS AND OF OXIDANT IN TOTAL OXIDANTS

           THEORETICAL ROCKET PERFORMANCE ASSUMING FROZEN COMPOSITION

 Pin =   734.8 PSIA
 CASE = _______________

             REACTANT                    WT FRACTION      ENERGY      TEMP
                                          (SEE NOTE)     KJ/KG-MOL      K  
 FUEL        paraffin                     1.0000000  -1860600.000    298.150
 OXIDANT     N2O                          1.0000000         0.000      0.000

 O/F=    6.30000  %FUEL= 13.698630  R,EQ.RATIO= 1.450560  PHI,EQ.RATIO= 1.450560

                 CHAMBER   THROAT     EXIT
 Pinf/P            1.0000   1.8034   26.124
 P, BAR            50.663   28.093   1.9393
 T, K             2590.40  2302.47  1315.94
 RHO, KG/CU M    6.1716 0 3.8502 0 4.6503-1
 H, KJ/KG         -254.43  -711.12 -2210.96
 U, KJ/KG        -1075.32 -1440.77 -2627.98
 G, KJ/KG        -24517.3 -22277.1 -14536.7
 S, KJ/(KG)(K)     9.3665   9.3665   9.3665

 M, (1/n)          26.237   26.237   26.237
 Cp, KJ/(KG)(K)    1.5961   1.5754   1.4448
 GAMMAs            1.2477   1.2518   1.2810
 SON VEL,M/SEC     1012.1    955.7    730.9
 MACH NUMBER        0.000    1.000    2.707

 PERFORMANCE PARAMETERS

 Ae/At                      1.0000   4.0000
 CSTAR, M/SEC               1376.8   1376.8
 CF                         0.6941   1.4367
 Ivac, M/SEC                1719.2   2189.0
 Isp, M/SEC                  955.7   1978.1

 MASS FRACTIONS

 *CO             0.18942   *CO2            0.14169   *H              0.00005
 *H2             0.00418   H2O             0.11461   *NO             0.00021
 *N2             0.54919   *O              0.00001   *OH             0.00061
 *O2             0.00002

  * THERMODYNAMIC PROPERTIES FITTED TO 20000.K

 NOTE. WEIGHT FRACTION OF FUEL IN TOTAL FUELS AND OF OXIDANT IN TOTAL OXIDANTS

           THEORETICAL ROCKET PERFORMANCE ASSUMING FROZEN COMPOSITION

 Pin =   749.5 PSIA
 CASE = _______________

             REACTANT                    WT FRACTION      ENERGY      TEMP
                                          (SEE NOTE)     KJ/KG-MOL      K  
 FUEL        paraffin                     1.0000000  -1860600.000    298.150
 OXIDANT     N2O                          1.0000000         0.000      0.000

 O/F=    6.30000  %FUEL= 13.698630  R,EQ.RATIO= 1.450560  PHI,EQ.RATIO= 1.450560

                 CHAMBER   THROAT     EXIT
 Pinf/P            1.0000   1.8034   26.124
 P, BAR            51.676   28.655   1.9781
 T, K             2590.54  2302.60  1316.03
 RHO, KG/CU M    6.2948 0 3.9270 0 4.7431-1
 H, KJ/KG         -254.43  -711.13 -2211.05
 U, KJ/KG        -1075.36 -1440.82 -2628.10
 G, KJ/KG        -24502.3 -22263.9 -14529.4
 S, KJ/(KG)(K)     9.3602   9.3602   9.3602

 M, (1/n)          26.237   26.237   26.237
 Cp, KJ/(KG)(K)    1.5961   1.5754   1.4448
 GAMMAs            1.2477   1.2518   1.2810
 SON VEL,M/SEC     1012.1    955.7    730.9
 MACH NUMBER        0.000    1.000    2.707

 PERFORMANCE PARAMETERS

 Ae/At                      1.0000   4.0000
 CSTAR, M/SEC               1376.9   1376.9
 CF                         0.6941   1.4367
 Ivac, M/SEC                1719.2   2189.0
 Isp, M/SEC                  955.7   1978.2

 MASS FRACTIONS

 *CO             0.18942   *CO2            0.14169   *H              0.00005
 *H2             0.00418   H2O             0.11462   *NO             0.00021
 *N2             0.54919   *O              0.00001   *OH             0.00060
 *O2             0.00002

  * THERMODYNAMIC PROPERTIES FITTED TO 20000.K

 NOTE. WEIGHT FRACTION OF FUEL IN TOTAL FUELS AND OF OXIDANT IN TOTAL OXIDANTS

           THEORETICAL ROCKET PERFORMANCE ASSUMING FROZEN COMPOSITION

 Pin =   764.2 PSIA
 CASE = _______________

             REACTANT                    WT FRACTION      ENERGY      TEMP
                                          (SEE NOTE)     KJ/KG-MOL      K  
 FUEL        paraffin                     1.0000000  -1860600.000    298.150
 OXIDANT     N2O                          1.0000000         0.000      0.000

 O/F=    6.30000  %FUEL= 13.698630  R,EQ.RATIO= 1.450560  PHI,EQ.RATIO= 1.450560

                 CHAMBER   THROAT     EXIT
 Pinf/P            1.0000   1.8034   26.124
 P, BAR            52.689   29.217   2.0169
 T, K             2590.67  2302.73  1316.12
 RHO, KG/CU M    6.4180 0 4.0038 0 4.8359-1
 H, KJ/KG         -254.43  -711.15 -2211.14
 U, KJ/KG        -1075.39 -1440.87 -2628.21
 G, KJ/KG        -24487.7 -22250.9 -14522.2
 S, KJ/(KG)(K)     9.3540   9.3540   9.3540

 M, (1/n)          26.238   26.238   26.238
 Cp, KJ/(KG)(K)    1.5961   1.5754   1.4448
 GAMMAs            1.2477   1.2518   1.2809
 SON VEL,M/SEC     1012.1    955.7    730.9
 MACH NUMBER        0.000    1.000    2.707

 PERFORMANCE PARAMETERS

 Ae/At                      1.0000   4.0000
 CSTAR, M/SEC               1376.9   1376.9
 CF                         0.6941   1.4367
 Ivac, M/SEC                1719.2   2189.1
 Isp, M/SEC                  955.7   1978.2

 MASS FRACTIONS

 *CO             0.18942   *CO2            0.14169   *H              0.00005
 *H2             0.00418   H2O             0.11463   *NO             0.00021
 *N2             0.54919   *O              0.00001   *OH             0.00059
 *O2             0.00002

  * THERMODYNAMIC PROPERTIES FITTED TO 20000.K

 NOTE. WEIGHT FRACTION OF FUEL IN TOTAL FUELS AND OF OXIDANT IN TOTAL OXIDANTS

           THEORETICAL ROCKET PERFORMANCE ASSUMING FROZEN COMPOSITION

 Pin =   778.9 PSIA
 CASE = _______________

             REACTANT                    WT FRACTION      ENERGY      TEMP
                                          (SEE NOTE)     KJ/KG-MOL      K  
 FUEL        paraffin                     1.0000000  -1860600.000    298.150
 OXIDANT     N2O                          1.0000000         0.000      0.000

 O/F=    6.30000  %FUEL= 13.698630  R,EQ.RATIO= 1.450560  PHI,EQ.RATIO= 1.450560

                 CHAMBER   THROAT     EXIT
 Pinf/P            1.0000   1.8034   26.123
 P, BAR            53.702   29.778   2.0557
 T, K             2590.81  2302.85  1316.21
 RHO, KG/CU M    6.5411 0 4.0807 0 4.9287-1
 H, KJ/KG         -254.43  -711.17 -2211.22
 U, KJ/KG        -1075.42 -1440.92 -2628.31
 G, KJ/KG        -24473.3 -22238.2 -14515.1
 S, KJ/(KG)(K)     9.3480   9.3480   9.3480

 M, (1/n)          26.238   26.238   26.238
 Cp, KJ/(KG)(K)    1.5961   1.5754   1.4448
 GAMMAs            1.2477   1.2518   1.2809
 SON VEL,M/SEC     1012.1    955.8    730.9
 MACH NUMBER        0.000    1.000    2.706

 PERFORMANCE PARAMETERS

 Ae/At                      1.0000   4.0000
 CSTAR, M/SEC               1376.9   1376.9
 CF                         0.6941   1.4367
 Ivac, M/SEC                1719.3   2189.1
 Isp, M/SEC                  955.8   1978.3

 MASS FRACTIONS

 *CO             0.18942   *CO2            0.14169   *H              0.00005
 *H2             0.00418   H2O             0.11464   *NO             0.00021
 *N2             0.54919   *O              0.00001   *OH             0.00059
 *O2             0.00002

  * THERMODYNAMIC PROPERTIES FITTED TO 20000.K

 NOTE. WEIGHT FRACTION OF FUEL IN TOTAL FUELS AND OF OXIDANT IN TOTAL OXIDANTS

           THEORETICAL ROCKET PERFORMANCE ASSUMING FROZEN COMPOSITION

 Pin =   793.6 PSIA
 CASE = _______________

             REACTANT                    WT FRACTION      ENERGY      TEMP
                                          (SEE NOTE)     KJ/KG-MOL      K  
 FUEL        paraffin                     1.0000000  -1860600.000    298.150
 OXIDANT     N2O                          1.0000000         0.000      0.000

 O/F=    6.30000  %FUEL= 13.698630  R,EQ.RATIO= 1.450560  PHI,EQ.RATIO= 1.450560

                 CHAMBER   THROAT     EXIT
 Pinf/P            1.0000   1.8034   26.123
 P, BAR            54.715   30.340   2.0945
 T, K             2590.93  2302.97  1316.29
 RHO, KG/CU M    6.6643 0 4.1575 0 5.0215-1
 H, KJ/KG         -254.43  -711.19 -2211.30
 U, KJ/KG        -1075.46 -1440.96 -2628.42
 G, KJ/KG        -24459.1 -22225.7 -14508.2
 S, KJ/(KG)(K)     9.3421   9.3421   9.3421

 M, (1/n)          26.238   26.238   26.238
 Cp, KJ/(KG)(K)    1.5961   1.5754   1.4449
 GAMMAs            1.2477   1.2518   1.2809
 SON VEL,M/SEC     1012.1    955.8    731.0
 MACH NUMBER        0.000    1.000    2.706

 PERFORMANCE PARAMETERS

 Ae/At                      1.0000   4.0000
 CSTAR, M/SEC               1377.0   1377.0
 CF                         0.6941   1.4367
 Ivac, M/SEC                1719.3   2189.2
 Isp, M/SEC                  955.8   1978.3

 MASS FRACTIONS

 *CO             0.18942   *CO2            0.14169   *H              0.00004
 *H2             0.00418   H2O             0.11464   *NO             0.00020
 *N2             0.54919   *O              0.00001   *OH             0.00058
 *O2             0.00002

  * THERMODYNAMIC PROPERTIES FITTED TO 20000.K

 NOTE. WEIGHT FRACTION OF FUEL IN TOTAL FUELS AND OF OXIDANT IN TOTAL OXIDANTS

           THEORETICAL ROCKET PERFORMANCE ASSUMING FROZEN COMPOSITION

 Pin =   808.3 PSIA
 CASE = _______________

             REACTANT                    WT FRACTION      ENERGY      TEMP
                                          (SEE NOTE)     KJ/KG-MOL      K  
 FUEL        paraffin                     1.0000000  -1860600.000    298.150
 OXIDANT     N2O                          1.0000000         0.000      0.000

 O/F=    6.30000  %FUEL= 13.698630  R,EQ.RATIO= 1.450560  PHI,EQ.RATIO= 1.450560

                 CHAMBER   THROAT     EXIT
 Pinf/P            1.0000   1.8034   26.123
 P, BAR            55.729   30.902   2.1334
 T, K             2591.06  2303.09  1316.38
 RHO, KG/CU M    6.7874 0 4.2343 0 5.1143-1
 H, KJ/KG         -254.43  -711.20 -2211.38
 U, KJ/KG        -1075.49 -1441.01 -2628.52
 G, KJ/KG        -24445.2 -22213.4 -14501.4
 S, KJ/(KG)(K)     9.3363   9.3363   9.3363

 M, (1/n)          26.239   26.239   26.239
 Cp, KJ/(KG)(K)    1.5961   1.5754   1.4449
 GAMMAs            1.2477   1.2518   1.2809
 SON VEL,M/SEC     1012.1    955.8    731.0
 MACH NUMBER        0.000    1.000    2.706

 PERFORMANCE PARAMETERS

 Ae/At                      1.0000   4.0000
 CSTAR, M/SEC               1377.0   1377.0
 CF                         0.6941   1.4367
 Ivac, M/SEC                1719.4   2189.2
 Isp, M/SEC                  955.8   1978.4

 MASS FRACTIONS

 *CO             0.18942   *CO2            0.14169   *H              0.00004
 *H2             0.00418   H2O             0.11465   *NO             0.00020
 *N2             0.54920   *O              0.00001   *OH             0.00058
 *O2             0.00002

  * THERMODYNAMIC PROPERTIES FITTED TO 20000.K

 NOTE. WEIGHT FRACTION OF FUEL IN TOTAL FUELS AND OF OXIDANT IN TOTAL OXIDANTS

           THEORETICAL ROCKET PERFORMANCE ASSUMING FROZEN COMPOSITION

 Pin =   823.0 PSIA
 CASE = _______________

             REACTANT                    WT FRACTION      ENERGY      TEMP
                                          (SEE NOTE)     KJ/KG-MOL      K  
 FUEL        paraffin                     1.0000000  -1860600.000    298.150
 OXIDANT     N2O                          1.0000000         0.000      0.000

 O/F=    6.30000  %FUEL= 13.698630  R,EQ.RATIO= 1.450560  PHI,EQ.RATIO= 1.450560

                 CHAMBER   THROAT     EXIT
 Pinf/P            1.0000   1.8034   26.122
 P, BAR            56.742   31.464   2.1722
 T, K             2591.18  2303.20  1316.46
 RHO, KG/CU M    6.9106 0 4.3111 0 5.2071-1
 H, KJ/KG         -254.43  -711.22 -2211.46
 U, KJ/KG        -1075.52 -1441.05 -2628.61
 G, KJ/KG        -24431.6 -22201.3 -14494.7
 S, KJ/(KG)(K)     9.3306   9.3306   9.3306

 M, (1/n)          26.239   26.239   26.239
 Cp, KJ/(KG)(K)    1.5961   1.5754   1.4449
 GAMMAs            1.2477   1.2518   1.2809
 SON VEL,M/SEC     1012.2    955.8    731.0
 MACH NUMBER        0.000    1.000    2.706

 PERFORMANCE PARAMETERS

 Ae/At                      1.0000   4.0000
 CSTAR, M/SEC               1377.0   1377.0
 CF                         0.6941   1.4367
 Ivac, M/SEC                1719.4   2189.3
 Isp, M/SEC                  955.8   1978.4

 MASS FRACTIONS

 *CO             0.18942   *CO2            0.14170   *H              0.00004
 *H2             0.00418   H2O             0.11465   *NO             0.00020
 *N2             0.54920   *O              0.00001   *OH             0.00057
 *O2             0.00002

  * THERMODYNAMIC PROPERTIES FITTED TO 20000.K

 NOTE. WEIGHT FRACTION OF FUEL IN TOTAL FUELS AND OF OXIDANT IN TOTAL OXIDANTS

           THEORETICAL ROCKET PERFORMANCE ASSUMING FROZEN COMPOSITION

 Pin =   837.7 PSIA
 CASE = _______________

             REACTANT                    WT FRACTION      ENERGY      TEMP
                                          (SEE NOTE)     KJ/KG-MOL      K  
 FUEL        paraffin                     1.0000000  -1860600.000    298.150
 OXIDANT     N2O                          1.0000000         0.000      0.000

 O/F=    6.30000  %FUEL= 13.698630  R,EQ.RATIO= 1.450560  PHI,EQ.RATIO= 1.450560

                 CHAMBER   THROAT     EXIT
 Pinf/P            1.0000   1.8034   26.122
 P, BAR            57.755   32.026   2.2110
 T, K             2591.30  2303.31  1316.53
 RHO, KG/CU M    7.0337 0 4.3880 0 5.2998-1
 H, KJ/KG         -254.43  -711.23 -2211.53
 U, KJ/KG        -1075.55 -1441.10 -2628.71
 G, KJ/KG        -24418.1 -22189.4 -14488.1
 S, KJ/(KG)(K)     9.3249   9.3249   9.3249

 M, (1/n)          26.239   26.239   26.239
 Cp, KJ/(KG)(K)    1.5961   1.5754   1.4449
 GAMMAs            1.2477   1.2518   1.2809
 SON VEL,M/SEC     1012.2    955.8    731.0
 MACH NUMBER        0.000    1.000    2.706

 PERFORMANCE PARAMETERS

 Ae/At                      1.0000   4.0000
 CSTAR, M/SEC               1377.0   1377.0
 CF                         0.6941   1.4367
 Ivac, M/SEC                1719.4   2189.3
 Isp, M/SEC                  955.8   1978.4

 MASS FRACTIONS

 *CO             0.18942   *CO2            0.14170   *H              0.00004
 *H2             0.00418   H2O             0.11466   *NO             0.00020
 *N2             0.54920   *O              0.00001   *OH             0.00057
 *O2             0.00002

  * THERMODYNAMIC PROPERTIES FITTED TO 20000.K

 NOTE. WEIGHT FRACTION OF FUEL IN TOTAL FUELS AND OF OXIDANT IN TOTAL OXIDANTS

           THEORETICAL ROCKET PERFORMANCE ASSUMING FROZEN COMPOSITION

 Pin =   852.4 PSIA
 CASE = _______________

             REACTANT                    WT FRACTION      ENERGY      TEMP
                                          (SEE NOTE)     KJ/KG-MOL      K  
 FUEL        paraffin                     1.0000000  -1860600.000    298.150
 OXIDANT     N2O                          1.0000000         0.000      0.000

 O/F=    6.30000  %FUEL= 13.698630  R,EQ.RATIO= 1.450560  PHI,EQ.RATIO= 1.450560

                 CHAMBER   THROAT     EXIT
 Pinf/P            1.0000   1.8034   26.122
 P, BAR            58.768   32.588   2.2498
 T, K             2591.41  2303.42  1316.61
 RHO, KG/CU M    7.1569 0 4.4648 0 5.3926-1
 H, KJ/KG         -254.43  -711.25 -2211.61
 U, KJ/KG        -1075.58 -1441.14 -2628.80
 G, KJ/KG        -24404.9 -22177.8 -14481.7
 S, KJ/(KG)(K)     9.3194   9.3194   9.3194

 M, (1/n)          26.239   26.239   26.239
 Cp, KJ/(KG)(K)    1.5961   1.5755   1.4449
 GAMMAs            1.2477   1.2518   1.2809
 SON VEL,M/SEC     1012.2    955.9    731.0
 MACH NUMBER        0.000    1.000    2.706

 PERFORMANCE PARAMETERS

 Ae/At                      1.0000   4.0000
 CSTAR, M/SEC               1377.1   1377.1
 CF                         0.6941   1.4367
 Ivac, M/SEC                1719.5   2189.3
 Isp, M/SEC                  955.8   1978.5

 MASS FRACTIONS

 *CO             0.18942   *CO2            0.14170   *H              0.00004
 *H2             0.00418   H2O             0.11467   *NO             0.00020
 *N2             0.54920   *O              0.00001   *OH             0.00057
 *O2             0.00002

  * THERMODYNAMIC PROPERTIES FITTED TO 20000.K

 NOTE. WEIGHT FRACTION OF FUEL IN TOTAL FUELS AND OF OXIDANT IN TOTAL OXIDANTS

           THEORETICAL ROCKET PERFORMANCE ASSUMING FROZEN COMPOSITION

 Pin =   867.1 PSIA
 CASE = _______________

             REACTANT                    WT FRACTION      ENERGY      TEMP
                                          (SEE NOTE)     KJ/KG-MOL      K  
 FUEL        paraffin                     1.0000000  -1860600.000    298.150
 OXIDANT     N2O                          1.0000000         0.000      0.000

 O/F=    6.30000  %FUEL= 13.698630  R,EQ.RATIO= 1.450560  PHI,EQ.RATIO= 1.450560

                 CHAMBER   THROAT     EXIT
 Pinf/P            1.0000   1.8034   26.122
 P, BAR            59.782   33.150   2.2886
 T, K             2591.53  2303.52  1316.68
 RHO, KG/CU M    7.2800 0 4.5416 0 5.4854-1
 H, KJ/KG         -254.43  -711.26 -2211.68
 U, KJ/KG        -1075.60 -1441.18 -2628.89
 G, KJ/KG        -24391.9 -22166.3 -14475.3
 S, KJ/(KG)(K)     9.3140   9.3140   9.3140

 M, (1/n)          26.240   26.240   26.240
 Cp, KJ/(KG)(K)    1.5961   1.5755   1.4449
 GAMMAs            1.2477   1.2518   1.2809
 SON VEL,M/SEC     1012.2    955.9    731.0
 MACH NUMBER        0.000    1.000    2.706

 PERFORMANCE PARAMETERS

 Ae/At                      1.0000   4.0000
 CSTAR, M/SEC               1377.1   1377.1
 CF                         0.6941   1.4367
 Ivac, M/SEC                1719.5   2189.4
 Isp, M/SEC                  955.9   1978.5

 MASS FRACTIONS

 *CO             0.18942   *CO2            0.14170   *H              0.00004
 *H2             0.00418   H2O             0.11467   *NO             0.00020
 *N2             0.54920   *O              0.00001   *OH             0.00056
 *O2             0.00002

  * THERMODYNAMIC PROPERTIES FITTED TO 20000.K

 NOTE. WEIGHT FRACTION OF FUEL IN TOTAL FUELS AND OF OXIDANT IN TOTAL OXIDANTS

           THEORETICAL ROCKET PERFORMANCE ASSUMING FROZEN COMPOSITION

 Pin =   881.8 PSIA
 CASE = _______________

             REACTANT                    WT FRACTION      ENERGY      TEMP
                                          (SEE NOTE)     KJ/KG-MOL      K  
 FUEL        paraffin                     1.0000000  -1860600.000    298.150
 OXIDANT     N2O                          1.0000000         0.000      0.000

 O/F=    6.30000  %FUEL= 13.698630  R,EQ.RATIO= 1.450560  PHI,EQ.RATIO= 1.450560

                 CHAMBER   THROAT     EXIT
 Pinf/P            1.0000   1.8034   26.121
 P, BAR            60.795   33.712   2.3274
 T, K             2591.64  2303.62  1316.76
 RHO, KG/CU M    7.4032 0 4.6184 0 5.5782-1
 H, KJ/KG         -254.43  -711.28 -2211.75
 U, KJ/KG        -1075.63 -1441.22 -2628.98
 G, KJ/KG        -24379.2 -22155.0 -14469.0
 S, KJ/(KG)(K)     9.3087   9.3087   9.3087

 M, (1/n)          26.240   26.240   26.240
 Cp, KJ/(KG)(K)    1.5961   1.5755   1.4449
 GAMMAs            1.2477   1.2518   1.2809
 SON VEL,M/SEC     1012.2    955.9    731.1
 MACH NUMBER        0.000    1.000    2.706

 PERFORMANCE PARAMETERS

 Ae/At                      1.0000   4.0000
 CSTAR, M/SEC               1377.1   1377.1
 CF                         0.6941   1.4367
 Ivac, M/SEC                1719.5   2189.4
 Isp, M/SEC                  955.9   1978.5

 MASS FRACTIONS

 *CO             0.18942   *CO2            0.14170   *H              0.00004
 *H2             0.00418   H2O             0.11468   *NO             0.00019
 *N2             0.54920   *O              0.00001   *OH             0.00056
 *O2             0.00002

  * THERMODYNAMIC PROPERTIES FITTED TO 20000.K

 NOTE. WEIGHT FRACTION OF FUEL IN TOTAL FUELS AND OF OXIDANT IN TOTAL OXIDANTS

           THEORETICAL ROCKET PERFORMANCE ASSUMING FROZEN COMPOSITION

 Pin =   896.5 PSIA
 CASE = _______________

             REACTANT                    WT FRACTION      ENERGY      TEMP
                                          (SEE NOTE)     KJ/KG-MOL      K  
 FUEL        paraffin                     1.0000000  -1860600.000    298.150
 OXIDANT     N2O                          1.0000000         0.000      0.000

 O/F=    6.30000  %FUEL= 13.698630  R,EQ.RATIO= 1.450560  PHI,EQ.RATIO= 1.450560

                 CHAMBER   THROAT     EXIT
 Pinf/P            1.0000   1.8034   26.121
 P, BAR            61.808   34.274   2.3662
 T, K             2591.74  2303.72  1316.83
 RHO, KG/CU M    7.5263 0 4.6953 0 5.6709-1
 H, KJ/KG         -254.43  -711.29 -2211.81
 U, KJ/KG        -1075.66 -1441.26 -2629.07
 G, KJ/KG        -24366.6 -22143.9 -14462.8
 S, KJ/(KG)(K)     9.3035   9.3035   9.3035

 M, (1/n)          26.240   26.240   26.240
 Cp, KJ/(KG)(K)    1.5962   1.5755   1.4450
 GAMMAs            1.2477   1.2518   1.2809
 SON VEL,M/SEC     1012.2    955.9    731.1
 MACH NUMBER        0.000    1.000    2.706

 PERFORMANCE PARAMETERS

 Ae/At                      1.0000   4.0000
 CSTAR, M/SEC               1377.1   1377.1
 CF                         0.6941   1.4367
 Ivac, M/SEC                1719.5   2189.5
 Isp, M/SEC                  955.9   1978.6

 MASS FRACTIONS

 *CO             0.18942   *CO2            0.14170   *H              0.00004
 *H2             0.00418   H2O             0.11468   *NO             0.00019
 *N2             0.54920   *O              0.00001   *OH             0.00055
 *O2             0.00002

  * THERMODYNAMIC PROPERTIES FITTED TO 20000.K

 NOTE. WEIGHT FRACTION OF FUEL IN TOTAL FUELS AND OF OXIDANT IN TOTAL OXIDANTS

           THEORETICAL ROCKET PERFORMANCE ASSUMING FROZEN COMPOSITION

 Pin =   911.2 PSIA
 CASE = _______________

             REACTANT                    WT FRACTION      ENERGY      TEMP
                                          (SEE NOTE)     KJ/KG-MOL      K  
 FUEL        paraffin                     1.0000000  -1860600.000    298.150
 OXIDANT     N2O                          1.0000000         0.000      0.000

 O/F=    6.30000  %FUEL= 13.698630  R,EQ.RATIO= 1.450560  PHI,EQ.RATIO= 1.450560

                 CHAMBER   THROAT     EXIT
 Pinf/P            1.0000   1.8034   26.121
 P, BAR            62.822   34.836   2.4050
 T, K             2591.85  2303.82  1316.89
 RHO, KG/CU M    7.6494 0 4.7721 0 5.7637-1
 H, KJ/KG         -254.43  -711.31 -2211.88
 U, KJ/KG        -1075.68 -1441.30 -2629.15
 G, KJ/KG        -24354.2 -22132.9 -14456.8
 S, KJ/(KG)(K)     9.2983   9.2983   9.2983

 M, (1/n)          26.240   26.240   26.240
 Cp, KJ/(KG)(K)    1.5962   1.5755   1.4450
 GAMMAs            1.2477   1.2518   1.2809
 SON VEL,M/SEC     1012.3    955.9    731.1
 MACH NUMBER        0.000    1.000    2.706

 PERFORMANCE PARAMETERS

 Ae/At                      1.0000   4.0000
 CSTAR, M/SEC               1377.2   1377.2
 CF                         0.6941   1.4367
 Ivac, M/SEC                1719.6   2189.5
 Isp, M/SEC                  955.9   1978.6

 MASS FRACTIONS

 *CO             0.18941   *CO2            0.14170   *H              0.00004
 *H2             0.00418   H2O             0.11469   *NO             0.00019
 *N2             0.54920   *O              0.00001   *OH             0.00055
 *O2             0.00002

  * THERMODYNAMIC PROPERTIES FITTED TO 20000.K

 NOTE. WEIGHT FRACTION OF FUEL IN TOTAL FUELS AND OF OXIDANT IN TOTAL OXIDANTS

           THEORETICAL ROCKET PERFORMANCE ASSUMING FROZEN COMPOSITION

 Pin =   925.8 PSIA
 CASE = _______________

             REACTANT                    WT FRACTION      ENERGY      TEMP
                                          (SEE NOTE)     KJ/KG-MOL      K  
 FUEL        paraffin                     1.0000000  -1860600.000    298.150
 OXIDANT     N2O                          1.0000000         0.000      0.000

 O/F=    6.30000  %FUEL= 13.698630  R,EQ.RATIO= 1.450560  PHI,EQ.RATIO= 1.450560

                 CHAMBER   THROAT     EXIT
 Pinf/P            1.0000   1.8034   26.120
 P, BAR            63.835   35.398   2.4439
 T, K             2591.95  2303.91  1316.96
 RHO, KG/CU M    7.7726 0 4.8489 0 5.8565-1
 H, KJ/KG         -254.43  -711.32 -2211.94
 U, KJ/KG        -1075.71 -1441.34 -2629.24
 G, KJ/KG        -24342.0 -22122.1 -14450.8
 S, KJ/(KG)(K)     9.2932   9.2932   9.2932

 M, (1/n)          26.240   26.240   26.240
 Cp, KJ/(KG)(K)    1.5962   1.5755   1.4450
 GAMMAs            1.2477   1.2517   1.2809
 SON VEL,M/SEC     1012.3    955.9    731.1
 MACH NUMBER        0.000    1.000    2.706

 PERFORMANCE PARAMETERS

 Ae/At                      1.0000   4.0000
 CSTAR, M/SEC               1377.2   1377.2
 CF                         0.6941   1.4367
 Ivac, M/SEC                1719.6   2189.5
 Isp, M/SEC                  955.9   1978.6

 MASS FRACTIONS

 *CO             0.18941   *CO2            0.14170   *H              0.00004
 *H2             0.00418   H2O             0.11469   *NO             0.00019
 *N2             0.54920   *O              0.00001   *OH             0.00054
 *O2             0.00001

  * THERMODYNAMIC PROPERTIES FITTED TO 20000.K

 NOTE. WEIGHT FRACTION OF FUEL IN TOTAL FUELS AND OF OXIDANT IN TOTAL OXIDANTS

           THEORETICAL ROCKET PERFORMANCE ASSUMING FROZEN COMPOSITION

 Pin =   940.5 PSIA
 CASE = _______________

             REACTANT                    WT FRACTION      ENERGY      TEMP
                                          (SEE NOTE)     KJ/KG-MOL      K  
 FUEL        paraffin                     1.0000000  -1860600.000    298.150
 OXIDANT     N2O                          1.0000000         0.000      0.000

 O/F=    6.30000  %FUEL= 13.698630  R,EQ.RATIO= 1.450560  PHI,EQ.RATIO= 1.450560

                 CHAMBER   THROAT     EXIT
 Pinf/P            1.0000   1.8034   26.120
 P, BAR            64.848   35.960   2.4827
 T, K             2592.05  2304.01  1317.03
 RHO, KG/CU M    7.8957 0 4.9257 0 5.9493-1
 H, KJ/KG         -254.43  -711.33 -2212.01
 U, KJ/KG        -1075.73 -1441.37 -2629.32
 G, KJ/KG        -24330.0 -22111.5 -14444.9
 S, KJ/(KG)(K)     9.2882   9.2882   9.2882

 M, (1/n)          26.241   26.241   26.241
 Cp, KJ/(KG)(K)    1.5962   1.5755   1.4450
 GAMMAs            1.2477   1.2517   1.2809
 SON VEL,M/SEC     1012.3    955.9    731.1
 MACH NUMBER        0.000    1.000    2.706

 PERFORMANCE PARAMETERS

 Ae/At                      1.0000   4.0000
 CSTAR, M/SEC               1377.2   1377.2
 CF                         0.6941   1.4367
 Ivac, M/SEC                1719.6   2189.6
 Isp, M/SEC                  955.9   1978.7

 MASS FRACTIONS

 *CO             0.18941   *CO2            0.14170   *H              0.00004
 *H2             0.00418   H2O             0.11470   *NO             0.00019
 *N2             0.54920   *O              0.00001   *OH             0.00054
 *O2             0.00001

  * THERMODYNAMIC PROPERTIES FITTED TO 20000.K

 NOTE. WEIGHT FRACTION OF FUEL IN TOTAL FUELS AND OF OXIDANT IN TOTAL OXIDANTS

           THEORETICAL ROCKET PERFORMANCE ASSUMING FROZEN COMPOSITION

 Pin =   955.2 PSIA
 CASE = _______________

             REACTANT                    WT FRACTION      ENERGY      TEMP
                                          (SEE NOTE)     KJ/KG-MOL      K  
 FUEL        paraffin                     1.0000000  -1860600.000    298.150
 OXIDANT     N2O                          1.0000000         0.000      0.000

 O/F=    6.30000  %FUEL= 13.698630  R,EQ.RATIO= 1.450560  PHI,EQ.RATIO= 1.450560

                 CHAMBER   THROAT     EXIT
 Pinf/P            1.0000   1.8034   26.120
 P, BAR            65.861   36.521   2.5215
 T, K             2592.15  2304.10  1317.09
 RHO, KG/CU M    8.0188 0 5.0025 0 6.0420-1
 H, KJ/KG         -254.43  -711.35 -2212.07
 U, KJ/KG        -1075.76 -1441.41 -2629.39
 G, KJ/KG        -24318.2 -22101.0 -14439.1
 S, KJ/(KG)(K)     9.2833   9.2833   9.2833

 M, (1/n)          26.241   26.241   26.241
 Cp, KJ/(KG)(K)    1.5962   1.5755   1.4450
 GAMMAs            1.2477   1.2517   1.2809
 SON VEL,M/SEC     1012.3    956.0    731.1
 MACH NUMBER        0.000    1.000    2.706

 PERFORMANCE PARAMETERS

 Ae/At                      1.0000   4.0000
 CSTAR, M/SEC               1377.2   1377.2
 CF                         0.6941   1.4367
 Ivac, M/SEC                1719.7   2189.6
 Isp, M/SEC                  955.9   1978.7

 MASS FRACTIONS

 *CO             0.18941   *CO2            0.14170   *H              0.00004
 *H2             0.00418   H2O             0.11470   *NO             0.00019
 *N2             0.54920   *O              0.00001   *OH             0.00054
 *O2             0.00001

  * THERMODYNAMIC PROPERTIES FITTED TO 20000.K

 NOTE. WEIGHT FRACTION OF FUEL IN TOTAL FUELS AND OF OXIDANT IN TOTAL OXIDANTS

           THEORETICAL ROCKET PERFORMANCE ASSUMING FROZEN COMPOSITION

 Pin =   969.9 PSIA
 CASE = _______________

             REACTANT                    WT FRACTION      ENERGY      TEMP
                                          (SEE NOTE)     KJ/KG-MOL      K  
 FUEL        paraffin                     1.0000000  -1860600.000    298.150
 OXIDANT     N2O                          1.0000000         0.000      0.000

 O/F=    6.30000  %FUEL= 13.698630  R,EQ.RATIO= 1.450560  PHI,EQ.RATIO= 1.450560

                 CHAMBER   THROAT     EXIT
 Pinf/P            1.0000   1.8034   26.120
 P, BAR            66.874   37.083   2.5603
 T, K             2592.24  2304.19  1317.15
 RHO, KG/CU M    8.1420 0 5.0793 0 6.1348-1
 H, KJ/KG         -254.43  -711.36 -2212.13
 U, KJ/KG        -1075.78 -1441.44 -2629.47
 G, KJ/KG        -24306.5 -22090.7 -14433.3
 S, KJ/(KG)(K)     9.2785   9.2785   9.2785

 M, (1/n)          26.241   26.241   26.241
 Cp, KJ/(KG)(K)    1.5962   1.5755   1.4450
 GAMMAs            1.2477   1.2517   1.2809
 SON VEL,M/SEC     1012.3    956.0    731.1
 MACH NUMBER        0.000    1.000    2.706

 PERFORMANCE PARAMETERS

 Ae/At                      1.0000   4.0000
 CSTAR, M/SEC               1377.3   1377.3
 CF                         0.6941   1.4367
 Ivac, M/SEC                1719.7   2189.7
 Isp, M/SEC                  956.0   1978.7

 MASS FRACTIONS

 *CO             0.18941   *CO2            0.14171   *H              0.00004
 *H2             0.00418   H2O             0.11471   *NO             0.00019
 *N2             0.54920   *O              0.00001   *OH             0.00053
 *O2             0.00001

  * THERMODYNAMIC PROPERTIES FITTED TO 20000.K

 NOTE. WEIGHT FRACTION OF FUEL IN TOTAL FUELS AND OF OXIDANT IN TOTAL OXIDANTS

           THEORETICAL ROCKET PERFORMANCE ASSUMING FROZEN COMPOSITION

 Pin =   984.6 PSIA
 CASE = _______________

             REACTANT                    WT FRACTION      ENERGY      TEMP
                                          (SEE NOTE)     KJ/KG-MOL      K  
 FUEL        paraffin                     1.0000000  -1860600.000    298.150
 OXIDANT     N2O                          1.0000000         0.000      0.000

 O/F=    6.30000  %FUEL= 13.698630  R,EQ.RATIO= 1.450560  PHI,EQ.RATIO= 1.450560

                 CHAMBER   THROAT     EXIT
 Pinf/P            1.0000   1.8034   26.120
 P, BAR            67.888   37.645   2.5991
 T, K             2592.34  2304.27  1317.22
 RHO, KG/CU M    8.2651 0 5.1561 0 6.2275-1
 H, KJ/KG         -254.43  -711.37 -2212.19
 U, KJ/KG        -1075.81 -1441.48 -2629.55
 G, KJ/KG        -24295.1 -22080.6 -14427.7
 S, KJ/(KG)(K)     9.2737   9.2737   9.2737

 M, (1/n)          26.241   26.241   26.241
 Cp, KJ/(KG)(K)    1.5962   1.5755   1.4450
 GAMMAs            1.2477   1.2517   1.2809
 SON VEL,M/SEC     1012.3    956.0    731.1
 MACH NUMBER        0.000    1.000    2.706

 PERFORMANCE PARAMETERS

 Ae/At                      1.0000   4.0000
 CSTAR, M/SEC               1377.3   1377.3
 CF                         0.6941   1.4367
 Ivac, M/SEC                1719.7   2189.7
 Isp, M/SEC                  956.0   1978.8

 MASS FRACTIONS

 *CO             0.18941   *CO2            0.14171   *H              0.00004
 *H2             0.00418   H2O             0.11471   *NO             0.00018
 *N2             0.54920   *O              0.00001   *OH             0.00053
 *O2             0.00001

  * THERMODYNAMIC PROPERTIES FITTED TO 20000.K

 NOTE. WEIGHT FRACTION OF FUEL IN TOTAL FUELS AND OF OXIDANT IN TOTAL OXIDANTS

           THEORETICAL ROCKET PERFORMANCE ASSUMING FROZEN COMPOSITION

 Pin =   999.3 PSIA
 CASE = _______________

             REACTANT                    WT FRACTION      ENERGY      TEMP
                                          (SEE NOTE)     KJ/KG-MOL      K  
 FUEL        paraffin                     1.0000000  -1860600.000    298.150
 OXIDANT     N2O                          1.0000000         0.000      0.000

 O/F=    6.30000  %FUEL= 13.698630  R,EQ.RATIO= 1.450560  PHI,EQ.RATIO= 1.450560

                 CHAMBER   THROAT     EXIT
 Pinf/P            1.0000   1.8033   26.119
 P, BAR            68.901   38.207   2.6379
 T, K             2592.43  2304.36  1317.28
 RHO, KG/CU M    8.3882 0 5.2330 0 6.3203-1
 H, KJ/KG         -254.43  -711.38 -2212.25
 U, KJ/KG        -1075.83 -1441.51 -2629.62
 G, KJ/KG        -24283.7 -22070.5 -14422.1
 S, KJ/(KG)(K)     9.2690   9.2690   9.2690

 M, (1/n)          26.241   26.241   26.241
 Cp, KJ/(KG)(K)    1.5962   1.5755   1.4450
 GAMMAs            1.2477   1.2517   1.2808
 SON VEL,M/SEC     1012.3    956.0    731.2
 MACH NUMBER        0.000    1.000    2.706

 PERFORMANCE PARAMETERS

 Ae/At                      1.0000   4.0000
 CSTAR, M/SEC               1377.3   1377.3
 CF                         0.6941   1.4367
 Ivac, M/SEC                1719.7   2189.7
 Isp, M/SEC                  956.0   1978.8

 MASS FRACTIONS

 *CO             0.18941   *CO2            0.14171   *H              0.00004
 *H2             0.00418   H2O             0.11472   *NO             0.00018
 *N2             0.54920   *O              0.00001   *OH             0.00053
 *O2             0.00001

  * THERMODYNAMIC PROPERTIES FITTED TO 20000.K

 NOTE. WEIGHT FRACTION OF FUEL IN TOTAL FUELS AND OF OXIDANT IN TOTAL OXIDANTS

           THEORETICAL ROCKET PERFORMANCE ASSUMING FROZEN COMPOSITION

 Pin =  1014.0 PSIA
 CASE = _______________

             REACTANT                    WT FRACTION      ENERGY      TEMP
                                          (SEE NOTE)     KJ/KG-MOL      K  
 FUEL        paraffin                     1.0000000  -1860600.000    298.150
 OXIDANT     N2O                          1.0000000         0.000      0.000

 O/F=    6.30000  %FUEL= 13.698630  R,EQ.RATIO= 1.450560  PHI,EQ.RATIO= 1.450560

                 CHAMBER   THROAT     EXIT
 Pinf/P            1.0000   1.8033   26.119
 P, BAR            69.914   38.769   2.6767
 T, K             2592.52  2304.44  1317.34
 RHO, KG/CU M    8.5114 0 5.3098 0 6.4131-1
 H, KJ/KG         -254.43  -711.40 -2212.30
 U, KJ/KG        -1075.85 -1441.54 -2629.69
 G, KJ/KG        -24272.6 -22060.7 -14416.6
 S, KJ/(KG)(K)     9.2644   9.2644   9.2644

 M, (1/n)          26.242   26.242   26.242
 Cp, KJ/(KG)(K)    1.5962   1.5755   1.4450
 GAMMAs            1.2477   1.2517   1.2808
 SON VEL,M/SEC     1012.4    956.0    731.2
 MACH NUMBER        0.000    1.000    2.706

 PERFORMANCE PARAMETERS

 Ae/At                      1.0000   4.0000
 CSTAR, M/SEC               1377.3   1377.3
 CF                         0.6941   1.4367
 Ivac, M/SEC                1719.8   2189.8
 Isp, M/SEC                  956.0   1978.8

 MASS FRACTIONS

 *CO             0.18941   *CO2            0.14171   *H              0.00004
 *H2             0.00418   H2O             0.11472   *NO             0.00018
 *N2             0.54920   *O              0.00001   *OH             0.00052
 *O2             0.00001

  * THERMODYNAMIC PROPERTIES FITTED TO 20000.K

 NOTE. WEIGHT FRACTION OF FUEL IN TOTAL FUELS AND OF OXIDANT IN TOTAL OXIDANTS

           THEORETICAL ROCKET PERFORMANCE ASSUMING FROZEN COMPOSITION

 Pin =  1028.7 PSIA
 CASE = _______________

             REACTANT                    WT FRACTION      ENERGY      TEMP
                                          (SEE NOTE)     KJ/KG-MOL      K  
 FUEL        paraffin                     1.0000000  -1860600.000    298.150
 OXIDANT     N2O                          1.0000000         0.000      0.000

 O/F=    6.30000  %FUEL= 13.698630  R,EQ.RATIO= 1.450560  PHI,EQ.RATIO= 1.450560

                 CHAMBER   THROAT     EXIT
 Pinf/P            1.0000   1.8033   26.119
 P, BAR            70.927   39.331   2.7156
 T, K             2592.61  2304.52  1317.39
 RHO, KG/CU M    8.6345 0 5.3866 0 6.5058-1
 H, KJ/KG         -254.43  -711.41 -2212.36
 U, KJ/KG        -1075.87 -1441.58 -2629.76
 G, KJ/KG        -24261.6 -22050.9 -14411.2
 S, KJ/(KG)(K)     9.2598   9.2598   9.2598

 M, (1/n)          26.242   26.242   26.242
 Cp, KJ/(KG)(K)    1.5962   1.5755   1.4450
 GAMMAs            1.2477   1.2517   1.2808
 SON VEL,M/SEC     1012.4    956.0    731.2
 MACH NUMBER        0.000    1.000    2.706

 PERFORMANCE PARAMETERS

 Ae/At                      1.0000   4.0000
 CSTAR, M/SEC               1377.3   1377.3
 CF                         0.6941   1.4367
 Ivac, M/SEC                1719.8   2189.8
 Isp, M/SEC                  956.0   1978.9

 MASS FRACTIONS

 *CO             0.18941   *CO2            0.14171   *H              0.00004
 *H2             0.00418   H2O             0.11473   *NO             0.00018
 *N2             0.54920   *O              0.00001   *OH             0.00052
 *O2             0.00001

  * THERMODYNAMIC PROPERTIES FITTED TO 20000.K

 NOTE. WEIGHT FRACTION OF FUEL IN TOTAL FUELS AND OF OXIDANT IN TOTAL OXIDANTS

           THEORETICAL ROCKET PERFORMANCE ASSUMING FROZEN COMPOSITION

 Pin =  1043.4 PSIA
 CASE = _______________

             REACTANT                    WT FRACTION      ENERGY      TEMP
                                          (SEE NOTE)     KJ/KG-MOL      K  
 FUEL        paraffin                     1.0000000  -1860600.000    298.150
 OXIDANT     N2O                          1.0000000         0.000      0.000

 O/F=    6.30000  %FUEL= 13.698630  R,EQ.RATIO= 1.450560  PHI,EQ.RATIO= 1.450560

                 CHAMBER   THROAT     EXIT
 Pinf/P            1.0000   1.8033   26.119
 P, BAR            71.941   39.893   2.7544
 T, K             2592.69  2304.60  1317.45
 RHO, KG/CU M    8.7576 0 5.4634 0 6.5986-1
 H, KJ/KG         -254.43  -711.42 -2212.41
 U, KJ/KG        -1075.89 -1441.61 -2629.83
 G, KJ/KG        -24250.7 -22041.3 -14405.9
 S, KJ/(KG)(K)     9.2554   9.2554   9.2554

 M, (1/n)          26.242   26.242   26.242
 Cp, KJ/(KG)(K)    1.5962   1.5755   1.4451
 GAMMAs            1.2477   1.2517   1.2808
 SON VEL,M/SEC     1012.4    956.0    731.2
 MACH NUMBER        0.000    1.000    2.706

 PERFORMANCE PARAMETERS

 Ae/At                     1.00000   4.0000
 CSTAR, M/SEC               1377.4   1377.4
 CF                         0.6941   1.4367
 Ivac, M/SEC                1719.8   2189.8
 Isp, M/SEC                  956.0   1978.9

 MASS FRACTIONS

 *CO             0.18941   *CO2            0.14171   *H              0.00004
 *H2             0.00418   H2O             0.11473   *NO             0.00018
 *N2             0.54920   *O              0.00001   *OH             0.00051
 *O2             0.00001

  * THERMODYNAMIC PROPERTIES FITTED TO 20000.K

 NOTE. WEIGHT FRACTION OF FUEL IN TOTAL FUELS AND OF OXIDANT IN TOTAL OXIDANTS

           THEORETICAL ROCKET PERFORMANCE ASSUMING FROZEN COMPOSITION

 Pin =  1058.1 PSIA
 CASE = _______________

             REACTANT                    WT FRACTION      ENERGY      TEMP
                                          (SEE NOTE)     KJ/KG-MOL      K  
 FUEL        paraffin                     1.0000000  -1860600.000    298.150
 OXIDANT     N2O                          1.0000000         0.000      0.000

 O/F=    6.30000  %FUEL= 13.698630  R,EQ.RATIO= 1.450560  PHI,EQ.RATIO= 1.450560

                 CHAMBER   THROAT     EXIT
 Pinf/P            1.0000   1.8033   26.118
 P, BAR            72.954   40.455   2.7932
 T, K             2592.78  2304.68  1317.50
 RHO, KG/CU M    8.8807 0 5.5402 0 6.6913-1
 H, KJ/KG         -254.43  -711.43 -2212.47
 U, KJ/KG        -1075.92 -1441.64 -2629.90
 G, KJ/KG        -24240.0 -22031.8 -14400.6
 S, KJ/(KG)(K)     9.2509   9.2509   9.2509

 M, (1/n)          26.242   26.242   26.242
 Cp, KJ/(KG)(K)    1.5962   1.5755   1.4451
 GAMMAs            1.2476   1.2517   1.2808
 SON VEL,M/SEC     1012.4    956.0    731.2
 MACH NUMBER        0.000    1.000    2.706

 PERFORMANCE PARAMETERS

 Ae/At                      1.0000   4.0000
 CSTAR, M/SEC               1377.4   1377.4
 CF                         0.6941   1.4367
 Ivac, M/SEC                1719.8   2189.8
 Isp, M/SEC                  956.0   1978.9

 MASS FRACTIONS

 *CO             0.18941   *CO2            0.14171   *H              0.00004
 *H2             0.00418   H2O             0.11473   *NO             0.00018
 *N2             0.54920   *O              0.00001   *OH             0.00051
 *O2             0.00001

  * THERMODYNAMIC PROPERTIES FITTED TO 20000.K

 NOTE. WEIGHT FRACTION OF FUEL IN TOTAL FUELS AND OF OXIDANT IN TOTAL OXIDANTS

           THEORETICAL ROCKET PERFORMANCE ASSUMING FROZEN COMPOSITION

 Pin =   720.1 PSIA
 CASE = _______________

             REACTANT                    WT FRACTION      ENERGY      TEMP
                                          (SEE NOTE)     KJ/KG-MOL      K  
 FUEL        paraffin                     1.0000000  -1860600.000    298.150
 OXIDANT     N2O                          1.0000000         0.000      0.000

 O/F=    6.50000  %FUEL= 13.333333  R,EQ.RATIO= 1.405927  PHI,EQ.RATIO= 1.405927

                 CHAMBER   THROAT     EXIT
 Pinf/P            1.0000   1.8018   25.959
 P, BAR            49.649   27.556   1.9126
 T, K             2640.74  2349.92  1351.91
 RHO, KG/CU M    5.9951 0 3.7391 0 4.5112-1
 H, KJ/KG         -247.64  -707.93 -2223.98
 U, KJ/KG        -1075.81 -1444.89 -2647.96
 G, KJ/KG        -24909.5 -22653.9 -14849.5
 S, KJ/(KG)(K)     9.3390   9.3390   9.3390

 M, (1/n)          26.512   26.512   26.512
 Cp, KJ/(KG)(K)    1.5924   1.5724   1.4458
 GAMMAs            1.2452   1.2491   1.2770
 SON VEL,M/SEC     1015.5    959.5    735.8
 MACH NUMBER        0.000    1.000    2.702

 PERFORMANCE PARAMETERS

 Ae/At                      1.0000   4.0000
 CSTAR, M/SEC               1383.9   1383.9
 CF                         0.6933   1.4366
 Ivac, M/SEC                1727.6   2201.4
 Isp, M/SEC                  959.5   1988.1

 MASS FRACTIONS

 *CO             0.17491   *CO2            0.15277   *H              0.00005
 *H2             0.00355   H2O             0.11599   *NO             0.00034
 *N2             0.55146   *O              0.00001   *OH             0.00086
 *O2             0.00004

  * THERMODYNAMIC PROPERTIES FITTED TO 20000.K

 NOTE. WEIGHT FRACTION OF FUEL IN TOTAL FUELS AND OF OXIDANT IN TOTAL OXIDANTS

           THEORETICAL ROCKET PERFORMANCE ASSUMING FROZEN COMPOSITION

 Pin =   734.8 PSIA
 CASE = _______________

             REACTANT                    WT FRACTION      ENERGY      TEMP
                                          (SEE NOTE)     KJ/KG-MOL      K  
 FUEL        paraffin                     1.0000000  -1860600.000    298.150
 OXIDANT     N2O                          1.0000000         0.000      0.000

 O/F=    6.50000  %FUEL= 13.333333  R,EQ.RATIO= 1.405927  PHI,EQ.RATIO= 1.405927

                 CHAMBER   THROAT     EXIT
 Pinf/P            1.0000   1.8018   25.958
 P, BAR            50.663   28.118   1.9517
 T, K             2640.92  2350.10  1352.04
 RHO, KG/CU M    6.1171 0 3.8152 0 4.6030-1
 H, KJ/KG         -247.64  -707.95 -2224.10
 U, KJ/KG        -1075.86 -1444.96 -2648.11
 G, KJ/KG        -24894.5 -22640.6 -14842.2
 S, KJ/(KG)(K)     9.3327   9.3327   9.3327

 M, (1/n)          26.512   26.512   26.512
 Cp, KJ/(KG)(K)    1.5924   1.5724   1.4458
 GAMMAs            1.2452   1.2491   1.2770
 SON VEL,M/SEC     1015.5    959.5    735.8
 MACH NUMBER        0.000    1.000    2.702

 PERFORMANCE PARAMETERS

 Ae/At                      1.0000   4.0000
 CSTAR, M/SEC               1384.0   1384.0
 CF                         0.6933   1.4366
 Ivac, M/SEC                1727.6   2201.5
 Isp, M/SEC                  959.5   1988.2

 MASS FRACTIONS

 *CO             0.17491   *CO2            0.15278   *H              0.00005
 *H2             0.00355   H2O             0.11599   *NO             0.00034
 *N2             0.55146   *O              0.00001   *OH             0.00085
 *O2             0.00004

  * THERMODYNAMIC PROPERTIES FITTED TO 20000.K

 NOTE. WEIGHT FRACTION OF FUEL IN TOTAL FUELS AND OF OXIDANT IN TOTAL OXIDANTS

           THEORETICAL ROCKET PERFORMANCE ASSUMING FROZEN COMPOSITION

 Pin =   749.5 PSIA
 CASE = _______________

             REACTANT                    WT FRACTION      ENERGY      TEMP
                                          (SEE NOTE)     KJ/KG-MOL      K  
 FUEL        paraffin                     1.0000000  -1860600.000    298.150
 OXIDANT     N2O                          1.0000000         0.000      0.000

 O/F=    6.50000  %FUEL= 13.333333  R,EQ.RATIO= 1.405927  PHI,EQ.RATIO= 1.405927

                 CHAMBER   THROAT     EXIT
 Pinf/P            1.0000   1.8018   25.958
 P, BAR            51.676   28.681   1.9908
 T, K             2641.11  2350.27  1352.16
 RHO, KG/CU M    6.2391 0 3.8913 0 4.6947-1
 H, KJ/KG         -247.64  -707.98 -2224.21
 U, KJ/KG        -1075.90 -1445.03 -2648.25
 G, KJ/KG        -24879.8 -22627.6 -14835.0
 S, KJ/(KG)(K)     9.3265   9.3265   9.3265

 M, (1/n)          26.513   26.513   26.513
 Cp, KJ/(KG)(K)    1.5924   1.5724   1.4458
 GAMMAs            1.2452   1.2491   1.2770
 SON VEL,M/SEC     1015.6    959.5    735.9
 MACH NUMBER        0.000    1.000    2.702

 PERFORMANCE PARAMETERS

 Ae/At                      1.0000   4.0000
 CSTAR, M/SEC               1384.0   1384.0
 CF                         0.6933   1.4366
 Ivac, M/SEC                1727.7   2201.5
 Isp, M/SEC                  959.5   1988.3

 MASS FRACTIONS

 *CO             0.17491   *CO2            0.15278   *H              0.00005
 *H2             0.00355   H2O             0.11600   *NO             0.00034
 *N2             0.55146   *O              0.00001   *OH             0.00085
 *O2             0.00004

  * THERMODYNAMIC PROPERTIES FITTED TO 20000.K

 NOTE. WEIGHT FRACTION OF FUEL IN TOTAL FUELS AND OF OXIDANT IN TOTAL OXIDANTS

           THEORETICAL ROCKET PERFORMANCE ASSUMING FROZEN COMPOSITION

 Pin =   764.2 PSIA
 CASE = _______________

             REACTANT                    WT FRACTION      ENERGY      TEMP
                                          (SEE NOTE)     KJ/KG-MOL      K  
 FUEL        paraffin                     1.0000000  -1860600.000    298.150
 OXIDANT     N2O                          1.0000000         0.000      0.000

 O/F=    6.50000  %FUEL= 13.333333  R,EQ.RATIO= 1.405927  PHI,EQ.RATIO= 1.405927

                 CHAMBER   THROAT     EXIT
 Pinf/P            1.0000   1.8018   25.957
 P, BAR            52.689   29.243   2.0298
 T, K             2641.28  2350.43  1352.27
 RHO, KG/CU M    6.3611 0 3.9674 0 4.7865-1
 H, KJ/KG         -247.64  -708.00 -2224.32
 U, KJ/KG        -1075.94 -1445.09 -2648.40
 G, KJ/KG        -24865.4 -22614.9 -14828.0
 S, KJ/(KG)(K)     9.3204   9.3204   9.3204

 M, (1/n)          26.513   26.513   26.513
 Cp, KJ/(KG)(K)    1.5924   1.5724   1.4458
 GAMMAs            1.2452   1.2491   1.2770
 SON VEL,M/SEC     1015.6    959.5    735.9
 MACH NUMBER        0.000    1.000    2.702

 PERFORMANCE PARAMETERS

 Ae/At                      1.0000   4.0000
 CSTAR, M/SEC               1384.1   1384.1
 CF                         0.6933   1.4366
 Ivac, M/SEC                1727.7   2201.6
 Isp, M/SEC                  959.5   1988.3

 MASS FRACTIONS

 *CO             0.17491   *CO2            0.15278   *H              0.00005
 *H2             0.00355   H2O             0.11601   *NO             0.00033
 *N2             0.55146   *O              0.00001   *OH             0.00084
 *O2             0.00004

  * THERMODYNAMIC PROPERTIES FITTED TO 20000.K

 NOTE. WEIGHT FRACTION OF FUEL IN TOTAL FUELS AND OF OXIDANT IN TOTAL OXIDANTS

           THEORETICAL ROCKET PERFORMANCE ASSUMING FROZEN COMPOSITION

 Pin =   778.9 PSIA
 CASE = _______________

             REACTANT                    WT FRACTION      ENERGY      TEMP
                                          (SEE NOTE)     KJ/KG-MOL      K  
 FUEL        paraffin                     1.0000000  -1860600.000    298.150
 OXIDANT     N2O                          1.0000000         0.000      0.000

 O/F=    6.50000  %FUEL= 13.333333  R,EQ.RATIO= 1.405927  PHI,EQ.RATIO= 1.405927

                 CHAMBER   THROAT     EXIT
 Pinf/P            1.0000   1.8018   25.957
 P, BAR            53.702   29.806   2.0689
 T, K             2641.46  2350.59  1352.39
 RHO, KG/CU M    6.4831 0 4.0434 0 4.8783-1
 H, KJ/KG         -247.64  -708.02 -2224.43
 U, KJ/KG        -1075.99 -1445.15 -2648.53
 G, KJ/KG        -24851.2 -22602.4 -14821.1
 S, KJ/(KG)(K)     9.3144   9.3144   9.3144

 M, (1/n)          26.514   26.514   26.514
 Cp, KJ/(KG)(K)    1.5924   1.5724   1.4458
 GAMMAs            1.2452   1.2491   1.2770
 SON VEL,M/SEC     1015.6    959.6    735.9
 MACH NUMBER        0.000    1.000    2.702

 PERFORMANCE PARAMETERS

 Ae/At                      1.0000   4.0000
 CSTAR, M/SEC               1384.1   1384.1
 CF                         0.6933   1.4366
 Ivac, M/SEC                1727.8   2201.7
 Isp, M/SEC                  959.6   1988.4

 MASS FRACTIONS

 *CO             0.17490   *CO2            0.15279   *H              0.00005
 *H2             0.00355   H2O             0.11602   *NO             0.00033
 *N2             0.55146   *O              0.00001   *OH             0.00083
 *O2             0.00004

  * THERMODYNAMIC PROPERTIES FITTED TO 20000.K

 NOTE. WEIGHT FRACTION OF FUEL IN TOTAL FUELS AND OF OXIDANT IN TOTAL OXIDANTS

           THEORETICAL ROCKET PERFORMANCE ASSUMING FROZEN COMPOSITION

 Pin =   793.6 PSIA
 CASE = _______________

             REACTANT                    WT FRACTION      ENERGY      TEMP
                                          (SEE NOTE)     KJ/KG-MOL      K  
 FUEL        paraffin                     1.0000000  -1860600.000    298.150
 OXIDANT     N2O                          1.0000000         0.000      0.000

 O/F=    6.50000  %FUEL= 13.333333  R,EQ.RATIO= 1.405927  PHI,EQ.RATIO= 1.405927

                 CHAMBER   THROAT     EXIT
 Pinf/P            1.0000   1.8017   25.957
 P, BAR            54.715   30.368   2.1080
 T, K             2641.63  2350.75  1352.50
 RHO, KG/CU M    6.6051 0 4.1195 0 4.9701-1
 H, KJ/KG         -247.64  -708.04 -2224.54
 U, KJ/KG        -1076.03 -1445.22 -2648.67
 G, KJ/KG        -24837.3 -22590.1 -14814.3
 S, KJ/(KG)(K)     9.3085   9.3085   9.3085

 M, (1/n)          26.514   26.514   26.514
 Cp, KJ/(KG)(K)    1.5924   1.5724   1.4459
 GAMMAs            1.2452   1.2491   1.2770
 SON VEL,M/SEC     1015.6    959.6    735.9
 MACH NUMBER        0.000    1.000    2.702

 PERFORMANCE PARAMETERS

 Ae/At                      1.0000   4.0000
 CSTAR, M/SEC               1384.1   1384.1
 CF                         0.6933   1.4366
 Ivac, M/SEC                1727.8   2201.7
 Isp, M/SEC                  959.6   1988.4

 MASS FRACTIONS

 *CO             0.17490   *CO2            0.15279   *H              0.00005
 *H2             0.00355   H2O             0.11603   *NO             0.00033
 *N2             0.55146   *O              0.00001   *OH             0.00082
 *O2             0.00004

  * THERMODYNAMIC PROPERTIES FITTED TO 20000.K

 NOTE. WEIGHT FRACTION OF FUEL IN TOTAL FUELS AND OF OXIDANT IN TOTAL OXIDANTS

           THEORETICAL ROCKET PERFORMANCE ASSUMING FROZEN COMPOSITION

 Pin =   808.3 PSIA
 CASE = _______________

             REACTANT                    WT FRACTION      ENERGY      TEMP
                                          (SEE NOTE)     KJ/KG-MOL      K  
 FUEL        paraffin                     1.0000000  -1860600.000    298.150
 OXIDANT     N2O                          1.0000000         0.000      0.000

 O/F=    6.50000  %FUEL= 13.333333  R,EQ.RATIO= 1.405927  PHI,EQ.RATIO= 1.405927

                 CHAMBER   THROAT     EXIT
 Pinf/P            1.0000   1.8017   25.956
 P, BAR            55.729   30.930   2.1470
 T, K             2641.79  2350.90  1352.61
 RHO, KG/CU M    6.7271 0 4.1956 0 5.0619-1
 H, KJ/KG         -247.64  -708.07 -2224.64
 U, KJ/KG        -1076.07 -1445.28 -2648.80
 G, KJ/KG        -24823.6 -22578.0 -14807.6
 S, KJ/(KG)(K)     9.3028   9.3028   9.3028

 M, (1/n)          26.514   26.514   26.514
 Cp, KJ/(KG)(K)    1.5924   1.5725   1.4459
 GAMMAs            1.2452   1.2491   1.2769
 SON VEL,M/SEC     1015.7    959.6    736.0
 MACH NUMBER        0.000    1.000    2.702

 PERFORMANCE PARAMETERS

 Ae/At                      1.0000   4.0000
 CSTAR, M/SEC               1384.2   1384.2
 CF                         0.6933   1.4366
 Ivac, M/SEC                1727.8   2201.8
 Isp, M/SEC                  959.6   1988.5

 MASS FRACTIONS

 *CO             0.17490   *CO2            0.15280   *H              0.00005
 *H2             0.00355   H2O             0.11604   *NO             0.00033
 *N2             0.55146   *O              0.00001   *OH             0.00082
 *O2             0.00004

  * THERMODYNAMIC PROPERTIES FITTED TO 20000.K

 NOTE. WEIGHT FRACTION OF FUEL IN TOTAL FUELS AND OF OXIDANT IN TOTAL OXIDANTS

           THEORETICAL ROCKET PERFORMANCE ASSUMING FROZEN COMPOSITION

 Pin =   823.0 PSIA
 CASE = _______________

             REACTANT                    WT FRACTION      ENERGY      TEMP
                                          (SEE NOTE)     KJ/KG-MOL      K  
 FUEL        paraffin                     1.0000000  -1860600.000    298.150
 OXIDANT     N2O                          1.0000000         0.000      0.000

 O/F=    6.50000  %FUEL= 13.333333  R,EQ.RATIO= 1.405927  PHI,EQ.RATIO= 1.405927

                 CHAMBER   THROAT     EXIT
 Pinf/P            1.0000   1.8017   25.956
 P, BAR            56.742   31.493   2.1861
 T, K             2641.95  2351.05  1352.71
 RHO, KG/CU M    6.8490 0 4.2717 0 5.1536-1
 H, KJ/KG         -247.64  -708.09 -2224.74
 U, KJ/KG        -1076.11 -1445.33 -2648.93
 G, KJ/KG        -24810.2 -22566.1 -14801.1
 S, KJ/(KG)(K)     9.2971   9.2971   9.2971

 M, (1/n)          26.515   26.515   26.515
 Cp, KJ/(KG)(K)    1.5924   1.5725   1.4459
 GAMMAs            1.2452   1.2491   1.2769
 SON VEL,M/SEC     1015.7    959.6    736.0
 MACH NUMBER        0.000    1.000    2.702

 PERFORMANCE PARAMETERS

 Ae/At                      1.0000   4.0000
 CSTAR, M/SEC               1384.2   1384.2
 CF                         0.6933   1.4366
 Ivac, M/SEC                1727.9   2201.8
 Isp, M/SEC                  959.6   1988.5

 MASS FRACTIONS

 *CO             0.17490   *CO2            0.15280   *H              0.00005
 *H2             0.00355   H2O             0.11605   *NO             0.00032
 *N2             0.55146   *O              0.00001   *OH             0.00081
 *O2             0.00004

  * THERMODYNAMIC PROPERTIES FITTED TO 20000.K

 NOTE. WEIGHT FRACTION OF FUEL IN TOTAL FUELS AND OF OXIDANT IN TOTAL OXIDANTS

           THEORETICAL ROCKET PERFORMANCE ASSUMING FROZEN COMPOSITION

 Pin =   837.7 PSIA
 CASE = _______________

             REACTANT                    WT FRACTION      ENERGY      TEMP
                                          (SEE NOTE)     KJ/KG-MOL      K  
 FUEL        paraffin                     1.0000000  -1860600.000    298.150
 OXIDANT     N2O                          1.0000000         0.000      0.000

 O/F=    6.50000  %FUEL= 13.333333  R,EQ.RATIO= 1.405927  PHI,EQ.RATIO= 1.405927

                 CHAMBER   THROAT     EXIT
 Pinf/P            1.0000   1.8017   25.955
 P, BAR            57.755   32.055   2.2252
 T, K             2642.10  2351.20  1352.82
 RHO, KG/CU M    6.9710 0 4.3478 0 5.2454-1
 H, KJ/KG         -247.64  -708.11 -2224.84
 U, KJ/KG        -1076.15 -1445.39 -2649.05
 G, KJ/KG        -24797.0 -22554.4 -14794.6
 S, KJ/(KG)(K)     9.2916   9.2916   9.2916

 M, (1/n)          26.515   26.515   26.515
 Cp, KJ/(KG)(K)    1.5924   1.5725   1.4459
 GAMMAs            1.2452   1.2491   1.2769
 SON VEL,M/SEC     1015.7    959.7    736.0
 MACH NUMBER        0.000    1.000    2.702

 PERFORMANCE PARAMETERS

 Ae/At                      1.0000   4.0000
 CSTAR, M/SEC               1384.2   1384.2
 CF                         0.6933   1.4366
 Ivac, M/SEC                1727.9   2201.9
 Isp, M/SEC                  959.7   1988.6

 MASS FRACTIONS

 *CO             0.17489   *CO2            0.15280   *H              0.00005
 *H2             0.00355   H2O             0.11605   *NO             0.00032
 *N2             0.55147   *O              0.00001   *OH             0.00080
 *O2             0.00004

  * THERMODYNAMIC PROPERTIES FITTED TO 20000.K

 NOTE. WEIGHT FRACTION OF FUEL IN TOTAL FUELS AND OF OXIDANT IN TOTAL OXIDANTS

           THEORETICAL ROCKET PERFORMANCE ASSUMING FROZEN COMPOSITION

 Pin =   852.4 PSIA
 CASE = _______________

             REACTANT                    WT FRACTION      ENERGY      TEMP
                                          (SEE NOTE)     KJ/KG-MOL      K  
 FUEL        paraffin                     1.0000000  -1860600.000    298.150
 OXIDANT     N2O                          1.0000000         0.000      0.000

 O/F=    6.50000  %FUEL= 13.333333  R,EQ.RATIO= 1.405927  PHI,EQ.RATIO= 1.405927

                 CHAMBER   THROAT     EXIT
 Pinf/P            1.0000   1.8017   25.955
 P, BAR            58.768   32.618   2.2642
 T, K             2642.26  2351.34  1352.92
 RHO, KG/CU M    7.0930 0 4.4238 0 5.3372-1
 H, KJ/KG         -247.64  -708.13 -2224.93
 U, KJ/KG        -1076.19 -1445.44 -2649.17
 G, KJ/KG        -24784.0 -22542.9 -14788.3
 S, KJ/(KG)(K)     9.2861   9.2861   9.2861

 M, (1/n)          26.515   26.515   26.515
 Cp, KJ/(KG)(K)    1.5924   1.5725   1.4459
 GAMMAs            1.2452   1.2491   1.2769
 SON VEL,M/SEC     1015.7    959.7    736.0
 MACH NUMBER        0.000    1.000    2.702

 PERFORMANCE PARAMETERS

 Ae/At                      1.0000   4.0000
 CSTAR, M/SEC               1384.3   1384.3
 CF                         0.6933   1.4366
 Ivac, M/SEC                1728.0   2201.9
 Isp, M/SEC                  959.7   1988.6

 MASS FRACTIONS

 *CO             0.17489   *CO2            0.15281   *H              0.00005
 *H2             0.00355   H2O             0.11606   *NO             0.00032
 *N2             0.55147   *O              0.00001   *OH             0.00080
 *O2             0.00004

  * THERMODYNAMIC PROPERTIES FITTED TO 20000.K

 NOTE. WEIGHT FRACTION OF FUEL IN TOTAL FUELS AND OF OXIDANT IN TOTAL OXIDANTS

           THEORETICAL ROCKET PERFORMANCE ASSUMING FROZEN COMPOSITION

 Pin =   867.1 PSIA
 CASE = _______________

             REACTANT                    WT FRACTION      ENERGY      TEMP
                                          (SEE NOTE)     KJ/KG-MOL      K  
 FUEL        paraffin                     1.0000000  -1860600.000    298.150
 OXIDANT     N2O                          1.0000000         0.000      0.000

 O/F=    6.50000  %FUEL= 13.333333  R,EQ.RATIO= 1.405927  PHI,EQ.RATIO= 1.405927

                 CHAMBER   THROAT     EXIT
 Pinf/P            1.0000   1.8017   25.955
 P, BAR            59.782   33.180   2.3033
 T, K             2642.40  2351.47  1353.01
 RHO, KG/CU M    7.2150 0 4.4999 0 5.4289-1
 H, KJ/KG         -247.64  -708.15 -2225.03
 U, KJ/KG        -1076.22 -1445.50 -2649.29
 G, KJ/KG        -24771.2 -22531.6 -14782.0
 S, KJ/(KG)(K)     9.2808   9.2808   9.2808

 M, (1/n)          26.516   26.516   26.516
 Cp, KJ/(KG)(K)    1.5925   1.5725   1.4460
 GAMMAs            1.2452   1.2491   1.2769
 SON VEL,M/SEC     1015.7    959.7    736.0
 MACH NUMBER        0.000    1.000    2.702

 PERFORMANCE PARAMETERS

 Ae/At                      1.0000   4.0000
 CSTAR, M/SEC               1384.3   1384.3
 CF                         0.6933   1.4366
 Ivac, M/SEC                1728.0   2202.0
 Isp, M/SEC                  959.7   1988.7

 MASS FRACTIONS

 *CO             0.17489   *CO2            0.15281   *H              0.00005
 *H2             0.00355   H2O             0.11607   *NO             0.00032
 *N2             0.55147   *O              0.00001   *OH             0.00079
 *O2             0.00004

  * THERMODYNAMIC PROPERTIES FITTED TO 20000.K

 NOTE. WEIGHT FRACTION OF FUEL IN TOTAL FUELS AND OF OXIDANT IN TOTAL OXIDANTS

           THEORETICAL ROCKET PERFORMANCE ASSUMING FROZEN COMPOSITION

 Pin =   881.8 PSIA
 CASE = _______________

             REACTANT                    WT FRACTION      ENERGY      TEMP
                                          (SEE NOTE)     KJ/KG-MOL      K  
 FUEL        paraffin                     1.0000000  -1860600.000    298.150
 OXIDANT     N2O                          1.0000000         0.000      0.000

 O/F=    6.50000  %FUEL= 13.333333  R,EQ.RATIO= 1.405927  PHI,EQ.RATIO= 1.405927

                 CHAMBER   THROAT     EXIT
 Pinf/P            1.0000   1.8017   25.954
 P, BAR            60.795   33.743   2.3424
 T, K             2642.55  2351.61  1353.11
 RHO, KG/CU M    7.3369 0 4.5760 0 5.5207-1
 H, KJ/KG         -247.64  -708.16 -2225.12
 U, KJ/KG        -1076.26 -1445.55 -2649.41
 G, KJ/KG        -24758.6 -22520.5 -14775.9
 S, KJ/(KG)(K)     9.2755   9.2755   9.2755

 M, (1/n)          26.516   26.516   26.516
 Cp, KJ/(KG)(K)    1.5925   1.5725   1.4460
 GAMMAs            1.2452   1.2491   1.2769
 SON VEL,M/SEC     1015.8    959.7    736.1
 MACH NUMBER        0.000    1.000    2.702

 PERFORMANCE PARAMETERS

 Ae/At                      1.0000   4.0000
 CSTAR, M/SEC               1384.3   1384.3
 CF                         0.6933   1.4366
 Ivac, M/SEC                1728.1   2202.1
 Isp, M/SEC                  959.7   1988.7

 MASS FRACTIONS

 *CO             0.17489   *CO2            0.15281   *H              0.00005
 *H2             0.00355   H2O             0.11608   *NO             0.00031
 *N2             0.55147   *O              0.00001   *OH             0.00079
 *O2             0.00003

  * THERMODYNAMIC PROPERTIES FITTED TO 20000.K

 NOTE. WEIGHT FRACTION OF FUEL IN TOTAL FUELS AND OF OXIDANT IN TOTAL OXIDANTS

           THEORETICAL ROCKET PERFORMANCE ASSUMING FROZEN COMPOSITION

 Pin =   896.5 PSIA
 CASE = _______________

             REACTANT                    WT FRACTION      ENERGY      TEMP
                                          (SEE NOTE)     KJ/KG-MOL      K  
 FUEL        paraffin                     1.0000000  -1860600.000    298.150
 OXIDANT     N2O                          1.0000000         0.000      0.000

 O/F=    6.50000  %FUEL= 13.333333  R,EQ.RATIO= 1.405927  PHI,EQ.RATIO= 1.405927

                 CHAMBER   THROAT     EXIT
 Pinf/P            1.0000   1.8017   25.954
 P, BAR            61.808   34.305   2.3814
 T, K             2642.69  2351.74  1353.20
 RHO, KG/CU M    7.4589 0 4.6521 0 5.6125-1
 H, KJ/KG         -247.64  -708.18 -2225.20
 U, KJ/KG        -1076.29 -1445.60 -2649.52
 G, KJ/KG        -24746.2 -22509.5 -14769.8
 S, KJ/(KG)(K)     9.2703   9.2703   9.2703

 M, (1/n)          26.516   26.516   26.516
 Cp, KJ/(KG)(K)    1.5925   1.5725   1.4460
 GAMMAs            1.2452   1.2491   1.2769
 SON VEL,M/SEC     1015.8    959.7    736.1
 MACH NUMBER        0.000    1.000    2.702

 PERFORMANCE PARAMETERS

 Ae/At                      1.0000   4.0000
 CSTAR, M/SEC               1384.4   1384.4
 CF                         0.6933   1.4366
 Ivac, M/SEC                1728.1   2202.1
 Isp, M/SEC                  959.7   1988.7

 MASS FRACTIONS

 *CO             0.17489   *CO2            0.15282   *H              0.00005
 *H2             0.00355   H2O             0.11608   *NO             0.00031
 *N2             0.55147   *O              0.00001   *OH             0.00078
 *O2             0.00003

  * THERMODYNAMIC PROPERTIES FITTED TO 20000.K

 NOTE. WEIGHT FRACTION OF FUEL IN TOTAL FUELS AND OF OXIDANT IN TOTAL OXIDANTS

           THEORETICAL ROCKET PERFORMANCE ASSUMING FROZEN COMPOSITION

 Pin =   911.2 PSIA
 CASE = _______________

             REACTANT                    WT FRACTION      ENERGY      TEMP
                                          (SEE NOTE)     KJ/KG-MOL      K  
 FUEL        paraffin                     1.0000000  -1860600.000    298.150
 OXIDANT     N2O                          1.0000000         0.000      0.000

 O/F=    6.50000  %FUEL= 13.333333  R,EQ.RATIO= 1.405927  PHI,EQ.RATIO= 1.405927

                 CHAMBER   THROAT     EXIT
 Pinf/P            1.0000   1.8017   25.954
 P, BAR            62.822   34.868   2.4205
 T, K             2642.83  2351.87  1353.29
 RHO, KG/CU M    7.5809 0 4.7281 0 5.7042-1
 H, KJ/KG         -247.64  -708.20 -2225.29
 U, KJ/KG        -1076.33 -1445.65 -2649.63
 G, KJ/KG        -24734.0 -22498.7 -14763.8
 S, KJ/(KG)(K)     9.2652   9.2652   9.2652

 M, (1/n)          26.517   26.517   26.517
 Cp, KJ/(KG)(K)    1.5925   1.5725   1.4460
 GAMMAs            1.2452   1.2491   1.2769
 SON VEL,M/SEC     1015.8    959.8    736.1
 MACH NUMBER        0.000    1.000    2.702

 PERFORMANCE PARAMETERS

 Ae/At                      1.0000   4.0000
 CSTAR, M/SEC               1384.4   1384.4
 CF                         0.6933   1.4366
 Ivac, M/SEC                1728.1   2202.2
 Isp, M/SEC                  959.7   1988.8

 MASS FRACTIONS

 *CO             0.17488   *CO2            0.15282   *H              0.00005
 *H2             0.00355   H2O             0.11609   *NO             0.00031
 *N2             0.55147   *O              0.00001   *OH             0.00077
 *O2             0.00003

  * THERMODYNAMIC PROPERTIES FITTED TO 20000.K

 NOTE. WEIGHT FRACTION OF FUEL IN TOTAL FUELS AND OF OXIDANT IN TOTAL OXIDANTS

           THEORETICAL ROCKET PERFORMANCE ASSUMING FROZEN COMPOSITION

 Pin =   925.8 PSIA
 CASE = _______________

             REACTANT                    WT FRACTION      ENERGY      TEMP
                                          (SEE NOTE)     KJ/KG-MOL      K  
 FUEL        paraffin                     1.0000000  -1860600.000    298.150
 OXIDANT     N2O                          1.0000000         0.000      0.000

 O/F=    6.50000  %FUEL= 13.333333  R,EQ.RATIO= 1.405927  PHI,EQ.RATIO= 1.405927

                 CHAMBER   THROAT     EXIT
 Pinf/P            1.0000   1.8017   25.953
 P, BAR            63.835   35.430   2.4596
 T, K             2642.96  2351.99  1353.38
 RHO, KG/CU M    7.7028 0 4.8042 0 5.7960-1
 H, KJ/KG         -247.64  -708.22 -2225.37
 U, KJ/KG        -1076.36 -1445.70 -2649.73
 G, KJ/KG        -24722.0 -22488.1 -14758.0
 S, KJ/(KG)(K)     9.2602   9.2602   9.2602

 M, (1/n)          26.517   26.517   26.517
 Cp, KJ/(KG)(K)    1.5925   1.5725   1.4460
 GAMMAs            1.2452   1.2491   1.2769
 SON VEL,M/SEC     1015.8    959.8    736.1
 MACH NUMBER        0.000    1.000    2.702

 PERFORMANCE PARAMETERS

 Ae/At                      1.0000   4.0000
 CSTAR, M/SEC               1384.4   1384.4
 CF                         0.6933   1.4366
 Ivac, M/SEC                1728.2   2202.2
 Isp, M/SEC                  959.8   1988.8

 MASS FRACTIONS

 *CO             0.17488   *CO2            0.15282   *H              0.00005
 *H2             0.00355   H2O             0.11610   *NO             0.00031
 *N2             0.55147   *O              0.00001   *OH             0.00077
 *O2             0.00003

  * THERMODYNAMIC PROPERTIES FITTED TO 20000.K

 NOTE. WEIGHT FRACTION OF FUEL IN TOTAL FUELS AND OF OXIDANT IN TOTAL OXIDANTS

           THEORETICAL ROCKET PERFORMANCE ASSUMING FROZEN COMPOSITION

 Pin =   940.5 PSIA
 CASE = _______________

             REACTANT                    WT FRACTION      ENERGY      TEMP
                                          (SEE NOTE)     KJ/KG-MOL      K  
 FUEL        paraffin                     1.0000000  -1860600.000    298.150
 OXIDANT     N2O                          1.0000000         0.000      0.000

 O/F=    6.50000  %FUEL= 13.333333  R,EQ.RATIO= 1.405927  PHI,EQ.RATIO= 1.405927

                 CHAMBER   THROAT     EXIT
 Pinf/P            1.0000   1.8017   25.953
 P, BAR            64.848   35.992   2.4987
 T, K             2643.09  2352.11  1353.47
 RHO, KG/CU M    7.8248 0 4.8802 0 5.8877-1
 H, KJ/KG         -247.64  -708.24 -2225.46
 U, KJ/KG        -1076.39 -1445.75 -2649.84
 G, KJ/KG        -24710.1 -22477.6 -14752.2
 S, KJ/(KG)(K)     9.2553   9.2553   9.2553

 M, (1/n)          26.517   26.517   26.517
 Cp, KJ/(KG)(K)    1.5925   1.5725   1.4460
 GAMMAs            1.2452   1.2491   1.2769
 SON VEL,M/SEC     1015.8    959.8    736.1
 MACH NUMBER        0.000    1.000    2.702

 PERFORMANCE PARAMETERS

 Ae/At                      1.0000   4.0000
 CSTAR, M/SEC               1384.5   1384.5
 CF                         0.6933   1.4366
 Ivac, M/SEC                1728.2   2202.3
 Isp, M/SEC                  959.8   1988.9

 MASS FRACTIONS

 *CO             0.17488   *CO2            0.15282   *H              0.00005
 *H2             0.00355   H2O             0.11610   *NO             0.00030
 *N2             0.55147   *O              0.00001   *OH             0.00076
 *O2             0.00003

  * THERMODYNAMIC PROPERTIES FITTED TO 20000.K

 NOTE. WEIGHT FRACTION OF FUEL IN TOTAL FUELS AND OF OXIDANT IN TOTAL OXIDANTS

           THEORETICAL ROCKET PERFORMANCE ASSUMING FROZEN COMPOSITION

 Pin =   955.2 PSIA
 CASE = _______________

             REACTANT                    WT FRACTION      ENERGY      TEMP
                                          (SEE NOTE)     KJ/KG-MOL      K  
 FUEL        paraffin                     1.0000000  -1860600.000    298.150
 OXIDANT     N2O                          1.0000000         0.000      0.000

 O/F=    6.50000  %FUEL= 13.333333  R,EQ.RATIO= 1.405927  PHI,EQ.RATIO= 1.405927

                 CHAMBER   THROAT     EXIT
 Pinf/P            1.0000   1.8017   25.953
 P, BAR            65.861   36.555   2.5377
 T, K             2643.22  2352.23  1353.55
 RHO, KG/CU M    7.9468 0 4.9563 0 5.9795-1
 H, KJ/KG         -247.64  -708.25 -2225.54
 U, KJ/KG        -1076.42 -1445.79 -2649.94
 G, KJ/KG        -24698.5 -22467.3 -14746.4
 S, KJ/(KG)(K)     9.2504   9.2504   9.2504

 M, (1/n)          26.517   26.517   26.517
 Cp, KJ/(KG)(K)    1.5925   1.5726   1.4460
 GAMMAs            1.2452   1.2490   1.2769
 SON VEL,M/SEC     1015.9    959.8    736.1
 MACH NUMBER        0.000    1.000    2.702

 PERFORMANCE PARAMETERS

 Ae/At                      1.0000   4.0000
 CSTAR, M/SEC               1384.5   1384.5
 CF                         0.6933   1.4366
 Ivac, M/SEC                1728.2   2202.3
 Isp, M/SEC                  959.8   1988.9

 MASS FRACTIONS

 *CO             0.17488   *CO2            0.15283   *H              0.00005
 *H2             0.00355   H2O             0.11611   *NO             0.00030
 *N2             0.55147   *O              0.00001   *OH             0.00076
 *O2             0.00003

  * THERMODYNAMIC PROPERTIES FITTED TO 20000.K

 NOTE. WEIGHT FRACTION OF FUEL IN TOTAL FUELS AND OF OXIDANT IN TOTAL OXIDANTS

           THEORETICAL ROCKET PERFORMANCE ASSUMING FROZEN COMPOSITION

 Pin =   969.9 PSIA
 CASE = _______________

             REACTANT                    WT FRACTION      ENERGY      TEMP
                                          (SEE NOTE)     KJ/KG-MOL      K  
 FUEL        paraffin                     1.0000000  -1860600.000    298.150
 OXIDANT     N2O                          1.0000000         0.000      0.000

 O/F=    6.50000  %FUEL= 13.333333  R,EQ.RATIO= 1.405927  PHI,EQ.RATIO= 1.405927

                 CHAMBER   THROAT     EXIT
 Pinf/P            1.0000   1.8017   25.953
 P, BAR            66.874   37.117   2.5768
 T, K             2643.35  2352.35  1353.64
 RHO, KG/CU M    8.0687 0 5.0324 0 6.0712-1
 H, KJ/KG         -247.64  -708.27 -2225.61
 U, KJ/KG        -1076.45 -1445.84 -2650.04
 G, KJ/KG        -24687.0 -22457.2 -14740.8
 S, KJ/(KG)(K)     9.2456   9.2456   9.2456

 M, (1/n)          26.518   26.518   26.518
 Cp, KJ/(KG)(K)    1.5925   1.5726   1.4461
 GAMMAs            1.2452   1.2490   1.2769
 SON VEL,M/SEC     1015.9    959.8    736.2
 MACH NUMBER        0.000    1.000    2.702

 PERFORMANCE PARAMETERS

 Ae/At                      1.0000   4.0000
 CSTAR, M/SEC               1384.5   1384.5
 CF                         0.6933   1.4366
 Ivac, M/SEC                1728.3   2202.3
 Isp, M/SEC                  959.8   1989.0

 MASS FRACTIONS

 *CO             0.17488   *CO2            0.15283   *H              0.00005
 *H2             0.00355   H2O             0.11612   *NO             0.00030
 *N2             0.55147   *O              0.00001   *OH             0.00075
 *O2             0.00003

  * THERMODYNAMIC PROPERTIES FITTED TO 20000.K

 NOTE. WEIGHT FRACTION OF FUEL IN TOTAL FUELS AND OF OXIDANT IN TOTAL OXIDANTS

           THEORETICAL ROCKET PERFORMANCE ASSUMING FROZEN COMPOSITION

 Pin =   984.6 PSIA
 CASE = _______________

             REACTANT                    WT FRACTION      ENERGY      TEMP
                                          (SEE NOTE)     KJ/KG-MOL      K  
 FUEL        paraffin                     1.0000000  -1860600.000    298.150
 OXIDANT     N2O                          1.0000000         0.000      0.000

 O/F=    6.50000  %FUEL= 13.333333  R,EQ.RATIO= 1.405927  PHI,EQ.RATIO= 1.405927

                 CHAMBER   THROAT     EXIT
 Pinf/P            1.0000   1.8017   25.952
 P, BAR            67.888   37.680   2.6159
 T, K             2643.47  2352.46  1353.72
 RHO, KG/CU M    8.1907 0 5.1084 0 6.1630-1
 H, KJ/KG         -247.64  -708.28 -2225.69
 U, KJ/KG        -1076.48 -1445.88 -2650.14
 G, KJ/KG        -24675.7 -22447.1 -14735.3
 S, KJ/(KG)(K)     9.2409   9.2409   9.2409

 M, (1/n)          26.518   26.518   26.518
 Cp, KJ/(KG)(K)    1.5925   1.5726   1.4461
 GAMMAs            1.2452   1.2490   1.2769
 SON VEL,M/SEC     1015.9    959.8    736.2
 MACH NUMBER        0.000    1.000    2.702

 PERFORMANCE PARAMETERS

 Ae/At                      1.0000   4.0000
 CSTAR, M/SEC               1384.5   1384.5
 CF                         0.6932   1.4366
 Ivac, M/SEC                1728.3   2202.4
 Isp, M/SEC                  959.8   1989.0

 MASS FRACTIONS

 *CO             0.17487   *CO2            0.15283   *H              0.00005
 *H2             0.00355   H2O             0.11612   *NO             0.00030
 *N2             0.55148   *O              0.00001   *OH             0.00075
 *O2             0.00003

  * THERMODYNAMIC PROPERTIES FITTED TO 20000.K

 NOTE. WEIGHT FRACTION OF FUEL IN TOTAL FUELS AND OF OXIDANT IN TOTAL OXIDANTS

           THEORETICAL ROCKET PERFORMANCE ASSUMING FROZEN COMPOSITION

 Pin =   999.3 PSIA
 CASE = _______________

             REACTANT                    WT FRACTION      ENERGY      TEMP
                                          (SEE NOTE)     KJ/KG-MOL      K  
 FUEL        paraffin                     1.0000000  -1860600.000    298.150
 OXIDANT     N2O                          1.0000000         0.000      0.000

 O/F=    6.50000  %FUEL= 13.333333  R,EQ.RATIO= 1.405927  PHI,EQ.RATIO= 1.405927

                 CHAMBER   THROAT     EXIT
 Pinf/P            1.0000   1.8017   25.952
 P, BAR            68.901   38.242   2.6549
 T, K             2643.59  2352.58  1353.80
 RHO, KG/CU M    8.3126 0 5.1845 0 6.2547-1
 H, KJ/KG         -247.64  -708.30 -2225.77
 U, KJ/KG        -1076.51 -1445.93 -2650.24
 G, KJ/KG        -24664.5 -22437.3 -14729.8
 S, KJ/(KG)(K)     9.2362   9.2362   9.2362

 M, (1/n)          26.518   26.518   26.518
 Cp, KJ/(KG)(K)    1.5925   1.5726   1.4461
 GAMMAs            1.2451   1.2490   1.2768
 SON VEL,M/SEC     1015.9    959.9    736.2
 MACH NUMBER        0.000    1.000    2.702

 PERFORMANCE PARAMETERS

 Ae/At                      1.0000   4.0000
 CSTAR, M/SEC               1384.6   1384.6
 CF                         0.6932   1.4366
 Ivac, M/SEC                1728.3   2202.4
 Isp, M/SEC                  959.9   1989.0

 MASS FRACTIONS

 *CO             0.17487   *CO2            0.15284   *H              0.00005
 *H2             0.00355   H2O             0.11613   *NO             0.00030
 *N2             0.55148   *O              0.00001   *OH             0.00074
 *O2             0.00003

  * THERMODYNAMIC PROPERTIES FITTED TO 20000.K

 NOTE. WEIGHT FRACTION OF FUEL IN TOTAL FUELS AND OF OXIDANT IN TOTAL OXIDANTS

           THEORETICAL ROCKET PERFORMANCE ASSUMING FROZEN COMPOSITION

 Pin =  1014.0 PSIA
 CASE = _______________

             REACTANT                    WT FRACTION      ENERGY      TEMP
                                          (SEE NOTE)     KJ/KG-MOL      K  
 FUEL        paraffin                     1.0000000  -1860600.000    298.150
 OXIDANT     N2O                          1.0000000         0.000      0.000

 O/F=    6.50000  %FUEL= 13.333333  R,EQ.RATIO= 1.405927  PHI,EQ.RATIO= 1.405927

                 CHAMBER   THROAT     EXIT
 Pinf/P            1.0000   1.8017   25.952
 P, BAR            69.914   38.805   2.6940
 T, K             2643.71  2352.68  1353.88
 RHO, KG/CU M    8.4346 0 5.2605 0 6.3465-1
 H, KJ/KG         -247.64  -708.32 -2225.84
 U, KJ/KG        -1076.54 -1445.97 -2650.33
[...]

                 CHAMBER   THROAT     EXIT
 Pinf/P            1.0000   1.7944   25.227
 P, BAR            62.822   35.011   2.4902
 T, K             2720.64  2433.81  1442.15
 RHO, KG/CU M    8.1395 0 5.0708 0 6.0868-1
 H, KJ/KG         -154.78  -581.83 -2007.15
 U, KJ/KG         -926.58 -1272.27 -2416.27
 G, KJ/KG        -23663.7 -21612.3 -14468.7
 S, KJ/(KG)(K)     8.6409   8.6409   8.6409

 M, (1/n)          29.309   29.309   29.309
 Cp, KJ/(KG)(K)    1.4967   1.4804   1.3781
 GAMMAs            1.2339   1.2370   1.2592
 SON VEL,M/SEC      975.9    924.2    717.7
 MACH NUMBER        0.000    1.000    2.682

 PERFORMANCE PARAMETERS

 Ae/At                      1.0000   4.0000
 CSTAR, M/SEC               1340.5   1340.5
 CF                         0.6894   1.4358
 Ivac, M/SEC                1671.3   2137.3
 Isp, M/SEC                  924.2   1924.8

 MASS FRACTIONS

 *CO             0.00992   *CO2            0.25166   *H              0.00001
 HO2             0.00003   *H2             0.00009   H2O             0.08929
 *NO             0.01405   NO2             0.00006   *N2             0.57686
 N2O             0.00001   *O              0.00059   *OH             0.00512
 *O2             0.05230

  * THERMODYNAMIC PROPERTIES FITTED TO 20000.K

 NOTE. WEIGHT FRACTION OF FUEL IN TOTAL FUELS AND OF OXIDANT IN TOTAL OXIDANTS

           THEORETICAL ROCKET PERFORMANCE ASSUMING FROZEN COMPOSITION

 Pin =   925.8 PSIA
 CASE = _______________

             REACTANT                    WT FRACTION      ENERGY      TEMP
                                          (SEE NOTE)     KJ/KG-MOL      K  
 FUEL        paraffin                     1.0000000  -1860600.000    298.150
 OXIDANT     N2O                          1.0000000         0.000      0.000

 O/F=   11.00000  %FUEL=  8.333333  R,EQ.RATIO= 0.830775  PHI,EQ.RATIO= 0.830775

                 CHAMBER   THROAT     EXIT
 Pinf/P            1.0000   1.7943   25.226
 P, BAR            63.835   35.575   2.5305
 T, K             2721.15  2434.29  1442.50
 RHO, KG/CU M    8.2696 0 5.1518 0 6.1840-1
 H, KJ/KG         -154.78  -581.89 -2007.44
 U, KJ/KG         -926.70 -1272.43 -2416.64
 G, KJ/KG        -23655.7 -21605.4 -14465.5
 S, KJ/(KG)(K)     8.6364   8.6364   8.6364

 M, (1/n)          29.310   29.310   29.310
 Cp, KJ/(KG)(K)    1.4968   1.4805   1.3782
 GAMMAs            1.2338   1.2370   1.2592
 SON VEL,M/SEC      975.9    924.2    717.8
 MACH NUMBER        0.000    1.000    2.682

 PERFORMANCE PARAMETERS

 Ae/At                      1.0000   4.0000
 CSTAR, M/SEC               1340.6   1340.6
 CF                         0.6894   1.4358
 Ivac, M/SEC                1671.4   2137.5
 Isp, M/SEC                  924.2   1924.9

 MASS FRACTIONS

 *CO             0.00987   *CO2            0.25175   *H              0.00001
 HO2             0.00003   *H2             0.00009   H2O             0.08930
 *NO             0.01405   NO2             0.00006   *N2             0.57686
 N2O             0.00001   *O              0.00059   *OH             0.00511
 *O2             0.05227

  * THERMODYNAMIC PROPERTIES FITTED TO 20000.K

 NOTE. WEIGHT FRACTION OF FUEL IN TOTAL FUELS AND OF OXIDANT IN TOTAL OXIDANTS

           THEORETICAL ROCKET PERFORMANCE ASSUMING FROZEN COMPOSITION

 Pin =   940.5 PSIA
 CASE = _______________

             REACTANT                    WT FRACTION      ENERGY      TEMP
                                          (SEE NOTE)     KJ/KG-MOL      K  
 FUEL        paraffin                     1.0000000  -1860600.000    298.150
 OXIDANT     N2O                          1.0000000         0.000      0.000

 O/F=   11.00000  %FUEL=  8.333333  R,EQ.RATIO= 0.830775  PHI,EQ.RATIO= 0.830775

                 CHAMBER   THROAT     EXIT
 Pinf/P            1.0000   1.7943   25.225
 P, BAR            64.848   36.140   2.5708
 T, K             2721.65  2434.76  1442.85
 RHO, KG/CU M    8.3997 0 5.2328 0 6.2812-1
 H, KJ/KG         -154.78  -581.94 -2007.72
 U, KJ/KG         -926.81 -1272.59 -2417.00
 G, KJ/KG        -23647.9 -21598.6 -14462.3
 S, KJ/(KG)(K)     8.6319   8.6319   8.6319

 M, (1/n)          29.311   29.311   29.311
 Cp, KJ/(KG)(K)    1.4968   1.4805   1.3783
 GAMMAs            1.2338   1.2370   1.2591
 SON VEL,M/SEC      976.0    924.3    717.9
 MACH NUMBER        0.000    1.000    2.682

 PERFORMANCE PARAMETERS

 Ae/At                      1.0000   4.0000
 CSTAR, M/SEC               1340.7   1340.7
 CF                         0.6894   1.4358
 Ivac, M/SEC                1671.5   2137.7
 Isp, M/SEC                  924.3   1925.1

 MASS FRACTIONS

 *CO             0.00982   *CO2            0.25182   *H              0.00001
 HO2             0.00003   *H2             0.00009   H2O             0.08931
 *NO             0.01406   NO2             0.00006   *N2             0.57685
 N2O             0.00001   *O              0.00059   *OH             0.00509
 *O2             0.05224

  * THERMODYNAMIC PROPERTIES FITTED TO 20000.K

 NOTE. WEIGHT FRACTION OF FUEL IN TOTAL FUELS AND OF OXIDANT IN TOTAL OXIDANTS

           THEORETICAL ROCKET PERFORMANCE ASSUMING FROZEN COMPOSITION

 Pin =   955.2 PSIA
 CASE = _______________

             REACTANT                    WT FRACTION      ENERGY      TEMP
                                          (SEE NOTE)     KJ/KG-MOL      K  
 FUEL        paraffin                     1.0000000  -1860600.000    298.150
 OXIDANT     N2O                          1.0000000         0.000      0.000

 O/F=   11.00000  %FUEL=  8.333333  R,EQ.RATIO= 0.830775  PHI,EQ.RATIO= 0.830775

                 CHAMBER   THROAT     EXIT
 Pinf/P            1.0000   1.7943   25.224
 P, BAR            65.861   36.705   2.6111
 T, K             2722.14  2435.22  1443.19
 RHO, KG/CU M    8.5297 0 5.3138 0 6.3784-1
 H, KJ/KG         -154.78  -582.00 -2008.00
 U, KJ/KG         -926.91 -1272.75 -2417.36
 G, KJ/KG        -23640.1 -21591.9 -14459.1
 S, KJ/(KG)(K)     8.6275   8.6275   8.6275

 M, (1/n)          29.312   29.312   29.312
 Cp, KJ/(KG)(K)    1.4968   1.4806   1.3783
 GAMMAs            1.2338   1.2370   1.2591
 SON VEL,M/SEC      976.0    924.4    717.9
 MACH NUMBER        0.000    1.000    2.682

 PERFORMANCE PARAMETERS

 Ae/At                      1.0000   4.0000
 CSTAR, M/SEC               1340.8   1340.8
 CF                         0.6894   1.4358
 Ivac, M/SEC                1671.6   2137.8
 Isp, M/SEC                  924.4   1925.2

 MASS FRACTIONS

 *CO             0.00977   *CO2            0.25190   *H              0.00001
 HO2             0.00003   *H2             0.00009   H2O             0.08933
 *NO             0.01407   NO2             0.00006   *N2             0.57685
 N2O             0.00001   *O              0.00058   *OH             0.00508
 *O2             0.05221

  * THERMODYNAMIC PROPERTIES FITTED TO 20000.K

 NOTE. WEIGHT FRACTION OF FUEL IN TOTAL FUELS AND OF OXIDANT IN TOTAL OXIDANTS

           THEORETICAL ROCKET PERFORMANCE ASSUMING FROZEN COMPOSITION

 Pin =   969.9 PSIA
 CASE = _______________

             REACTANT                    WT FRACTION      ENERGY      TEMP
                                          (SEE NOTE)     KJ/KG-MOL      K  
 FUEL        paraffin                     1.0000000  -1860600.000    298.150
 OXIDANT     N2O                          1.0000000         0.000      0.000

 O/F=   11.00000  %FUEL=  8.333333  R,EQ.RATIO= 0.830775  PHI,EQ.RATIO= 0.830775

                 CHAMBER   THROAT     EXIT
 Pinf/P            1.0000   1.7943   25.223
 P, BAR            66.874   37.270   2.6514
 T, K             2722.62  2435.67  1443.52
 RHO, KG/CU M    8.6598 0 5.3948 0 6.4756-1
 H, KJ/KG         -154.78  -582.06 -2008.27
 U, KJ/KG         -927.02 -1272.91 -2417.71
 G, KJ/KG        -23632.5 -21585.3 -14456.0
 S, KJ/(KG)(K)     8.6232   8.6232   8.6232

 M, (1/n)          29.314   29.314   29.314
 Cp, KJ/(KG)(K)    1.4969   1.4806   1.3784
 GAMMAs            1.2338   1.2370   1.2591
 SON VEL,M/SEC      976.1    924.4    718.0
 MACH NUMBER        0.000    1.000    2.682

 PERFORMANCE PARAMETERS

 Ae/At                      1.0000   4.0000
 CSTAR, M/SEC               1340.9   1340.9
 CF                         0.6894   1.4358
 Ivac, M/SEC                1671.8   2138.0
 Isp, M/SEC                  924.4   1925.4

 MASS FRACTIONS

 *CO             0.00972   *CO2            0.25198   *H              0.00001
 HO2             0.00003   *H2             0.00009   H2O             0.08934
 *NO             0.01407   NO2             0.00006   *N2             0.57685
 N2O             0.00001   *O              0.00058   *OH             0.00506
 *O2             0.05219

  * THERMODYNAMIC PROPERTIES FITTED TO 20000.K

 NOTE. WEIGHT FRACTION OF FUEL IN TOTAL FUELS AND OF OXIDANT IN TOTAL OXIDANTS

           THEORETICAL ROCKET PERFORMANCE ASSUMING FROZEN COMPOSITION

 Pin =   984.6 PSIA
 CASE = _______________

             REACTANT                    WT FRACTION      ENERGY      TEMP
                                          (SEE NOTE)     KJ/KG-MOL      K  
 FUEL        paraffin                     1.0000000  -1860600.000    298.150
 OXIDANT     N2O                          1.0000000         0.000      0.000

 O/F=   11.00000  %FUEL=  8.333333  R,EQ.RATIO= 0.830775  PHI,EQ.RATIO= 0.830775

                 CHAMBER   THROAT     EXIT
 Pinf/P            1.0000   1.7943   25.222
 P, BAR            67.888   37.835   2.6916
 T, K             2723.09  2436.11  1443.85
 RHO, KG/CU M    8.7898 0 5.4758 0 6.5728-1
 H, KJ/KG         -154.78  -582.11 -2008.53
 U, KJ/KG         -927.12 -1273.06 -2418.05
 G, KJ/KG        -23625.0 -21578.8 -14453.0
 S, KJ/(KG)(K)     8.6189   8.6189   8.6189

 M, (1/n)          29.315   29.315   29.315
 Cp, KJ/(KG)(K)    1.4969   1.4806   1.3784
 GAMMAs            1.2338   1.2369   1.2591
 SON VEL,M/SEC      976.2    924.5    718.1
 MACH NUMBER        0.000    1.000    2.682

 PERFORMANCE PARAMETERS

 Ae/At                      1.0000   4.0000
 CSTAR, M/SEC               1341.0   1341.0
 CF                         0.6894   1.4358
 Ivac, M/SEC                1671.9   2138.2
 Isp, M/SEC                  924.5   1925.5

 MASS FRACTIONS

 *CO             0.00967   *CO2            0.25205   *H              0.00001
 HNO2            0.00001   HO2             0.00003   *H2             0.00009
 H2O             0.08935   *NO             0.01408   NO2             0.00006
 *N2             0.57684   N2O             0.00001   *O              0.00058
 *OH             0.00505   *O2             0.05216

  * THERMODYNAMIC PROPERTIES FITTED TO 20000.K

 NOTE. WEIGHT FRACTION OF FUEL IN TOTAL FUELS AND OF OXIDANT IN TOTAL OXIDANTS

           THEORETICAL ROCKET PERFORMANCE ASSUMING FROZEN COMPOSITION

 Pin =   999.3 PSIA
 CASE = _______________

             REACTANT                    WT FRACTION      ENERGY      TEMP
                                          (SEE NOTE)     KJ/KG-MOL      K  
 FUEL        paraffin                     1.0000000  -1860600.000    298.150
 OXIDANT     N2O                          1.0000000         0.000      0.000

 O/F=   11.00000  %FUEL=  8.333333  R,EQ.RATIO= 0.830775  PHI,EQ.RATIO= 0.830775

                 CHAMBER   THROAT     EXIT
 Pinf/P            1.0000   1.7943   25.221
 P, BAR            68.901   38.400   2.7319
 T, K             2723.56  2436.54  1444.17
 RHO, KG/CU M    8.9198 0 5.5568 0 6.6699-1
 H, KJ/KG         -154.78  -582.17 -2008.79
 U, KJ/KG         -927.23 -1273.21 -2418.39
 G, KJ/KG        -23617.5 -21572.4 -14449.9
 S, KJ/(KG)(K)     8.6147   8.6147   8.6147

 M, (1/n)          29.316   29.316   29.316
 Cp, KJ/(KG)(K)    1.4969   1.4807   1.3785
 GAMMAs            1.2338   1.2369   1.2590
 SON VEL,M/SEC      976.2    924.5    718.1
 MACH NUMBER        0.000    1.000    2.681

 PERFORMANCE PARAMETERS

 Ae/At                      1.0000   4.0000
 CSTAR, M/SEC               1341.1   1341.1
 CF                         0.6894   1.4358
 Ivac, M/SEC                1672.0   2138.3
 Isp, M/SEC                  924.5   1925.6

 MASS FRACTIONS

 *CO             0.00963   *CO2            0.25213   *H              0.00001
 HNO2            0.00001   HO2             0.00003   *H2             0.00009
 H2O             0.08936   *NO             0.01409   NO2             0.00006
 *N2             0.57684   N2O             0.00001   *O              0.00057
 *OH             0.00504   *O2             0.05214

  * THERMODYNAMIC PROPERTIES FITTED TO 20000.K

 NOTE. WEIGHT FRACTION OF FUEL IN TOTAL FUELS AND OF OXIDANT IN TOTAL OXIDANTS

           THEORETICAL ROCKET PERFORMANCE ASSUMING FROZEN COMPOSITION

 Pin =  1014.0 PSIA
 CASE = _______________

             REACTANT                    WT FRACTION      ENERGY      TEMP
                                          (SEE NOTE)     KJ/KG-MOL      K  
 FUEL        paraffin                     1.0000000  -1860600.000    298.150
 OXIDANT     N2O                          1.0000000         0.000      0.000

 O/F=   11.00000  %FUEL=  8.333333  R,EQ.RATIO= 0.830775  PHI,EQ.RATIO= 0.830775

                 CHAMBER   THROAT     EXIT
 Pinf/P            1.0000   1.7943   25.219
 P, BAR            69.914   38.965   2.7722
 T, K             2724.01  2436.97  1444.49
 RHO, KG/CU M    9.0498 0 5.6378 0 6.7671-1
 H, KJ/KG         -154.78  -582.22 -2009.05
 U, KJ/KG         -927.33 -1273.36 -2418.72
 G, KJ/KG        -23610.2 -21566.0 -14446.9
 S, KJ/(KG)(K)     8.6106   8.6106   8.6106

 M, (1/n)          29.317   29.317   29.317
 Cp, KJ/(KG)(K)    1.4970   1.4807   1.3786
 GAMMAs            1.2337   1.2369   1.2590
 SON VEL,M/SEC      976.3    924.6    718.2
 MACH NUMBER        0.000    1.000    2.681

 PERFORMANCE PARAMETERS

 Ae/At                      1.0000   4.0000
 CSTAR, M/SEC               1341.2   1341.2
 CF                         0.6894   1.4358
 Ivac, M/SEC                1672.1   2138.5
 Isp, M/SEC                  924.6   1925.8

 MASS FRACTIONS

 *CO             0.00958   *CO2            0.25220   *H              0.00001
 HNO2            0.00001   HO2             0.00003   *H2             0.00009
 H2O             0.08937   *NO             0.01409   NO2             0.00006
 *N2             0.57684   N2O             0.00001   *O              0.00057
 *OH             0.00503   *O2             0.05211

  * THERMODYNAMIC PROPERTIES FITTED TO 20000.K

 NOTE. WEIGHT FRACTION OF FUEL IN TOTAL FUELS AND OF OXIDANT IN TOTAL OXIDANTS

           THEORETICAL ROCKET PERFORMANCE ASSUMING FROZEN COMPOSITION

 Pin =  1028.7 PSIA
 CASE = _______________

             REACTANT                    WT FRACTION      ENERGY      TEMP
                                          (SEE NOTE)     KJ/KG-MOL      K  
 FUEL        paraffin                     1.0000000  -1860600.000    298.150
 OXIDANT     N2O                          1.0000000         0.000      0.000

 O/F=   11.00000  %FUEL=  8.333333  R,EQ.RATIO= 0.830775  PHI,EQ.RATIO= 0.830775

                 CHAMBER   THROAT     EXIT
 Pinf/P            1.0000   1.7943   25.218
 P, BAR            70.927   39.530   2.8125
 T, K             2724.46  2437.39  1444.80
 RHO, KG/CU M    9.1798 0 5.7188 0 6.8642-1
 H, KJ/KG         -154.78  -582.27 -2009.30
 U, KJ/KG         -927.42 -1273.51 -2419.04
 G, KJ/KG        -23602.9 -21559.7 -14444.0
 S, KJ/(KG)(K)     8.6065   8.6065   8.6065

 M, (1/n)          29.318   29.318   29.318
 Cp, KJ/(KG)(K)    1.4970   1.4807   1.3786
 GAMMAs            1.2337   1.2369   1.2590
 SON VEL,M/SEC      976.3    924.7    718.2
 MACH NUMBER        0.000    1.000    2.681

 PERFORMANCE PARAMETERS

 Ae/At                      1.0000   4.0000
 CSTAR, M/SEC               1341.3   1341.3
 CF                         0.6894   1.4358
 Ivac, M/SEC                1672.2   2138.6
 Isp, M/SEC                  924.7   1925.9

 MASS FRACTIONS

 *CO             0.00954   *CO2            0.25227   *H              0.00001
 HNO2            0.00001   HO2             0.00003   *H2             0.00009
 H2O             0.08938   *NO             0.01410   NO2             0.00006
 *N2             0.57683   N2O             0.00001   *O              0.00057
 *OH             0.00501   *O2             0.05209

  * THERMODYNAMIC PROPERTIES FITTED TO 20000.K

 NOTE. WEIGHT FRACTION OF FUEL IN TOTAL FUELS AND OF OXIDANT IN TOTAL OXIDANTS

           THEORETICAL ROCKET PERFORMANCE ASSUMING FROZEN COMPOSITION

 Pin =  1043.4 PSIA
 CASE = _______________

             REACTANT                    WT FRACTION      ENERGY      TEMP
                                          (SEE NOTE)     KJ/KG-MOL      K  
 FUEL        paraffin                     1.0000000  -1860600.000    298.150
 OXIDANT     N2O                          1.0000000         0.000      0.000

 O/F=   11.00000  %FUEL=  8.333333  R,EQ.RATIO= 0.830775  PHI,EQ.RATIO= 0.830775

                 CHAMBER   THROAT     EXIT
 Pinf/P            1.0000   1.7943   25.217
 P, BAR            71.941   40.095   2.8528
 T, K             2724.90  2437.80  1445.10
 RHO, KG/CU M    9.3098 0 5.7997 0 6.9613-1
 H, KJ/KG         -154.78  -582.32 -2009.55
 U, KJ/KG         -927.52 -1273.65 -2419.36
 G, KJ/KG        -23595.7 -21553.5 -14441.0
 S, KJ/(KG)(K)     8.6025   8.6025   8.6025

 M, (1/n)          29.319   29.319   29.319
 Cp, KJ/(KG)(K)    1.4970   1.4808   1.3787
 GAMMAs            1.2337   1.2369   1.2590
 SON VEL,M/SEC      976.4    924.7    718.3
 MACH NUMBER        0.000    1.000    2.681

 PERFORMANCE PARAMETERS

 Ae/At                      1.0000   4.0000
 CSTAR, M/SEC               1341.4   1341.4
 CF                         0.6894   1.4358
 Ivac, M/SEC                1672.3   2138.8
 Isp, M/SEC                  924.7   1926.0

 MASS FRACTIONS

 *CO             0.00949   *CO2            0.25234   *H              0.00001
 HNO2            0.00001   HO2             0.00003   *H2             0.00009
 H2O             0.08939   *NO             0.01410   NO2             0.00006
 *N2             0.57683   N2O             0.00001   *O              0.00056
 *OH             0.00500   *O2             0.05206

  * THERMODYNAMIC PROPERTIES FITTED TO 20000.K

 NOTE. WEIGHT FRACTION OF FUEL IN TOTAL FUELS AND OF OXIDANT IN TOTAL OXIDANTS

           THEORETICAL ROCKET PERFORMANCE ASSUMING FROZEN COMPOSITION

 Pin =  1058.1 PSIA
 CASE = _______________

             REACTANT                    WT FRACTION      ENERGY      TEMP
                                          (SEE NOTE)     KJ/KG-MOL      K  
 FUEL        paraffin                     1.0000000  -1860600.000    298.150
 OXIDANT     N2O                          1.0000000         0.000      0.000

 O/F=   11.00000  %FUEL=  8.333333  R,EQ.RATIO= 0.830775  PHI,EQ.RATIO= 0.830775

                 CHAMBER   THROAT     EXIT
 Pinf/P            1.0000   1.7942   25.216
 P, BAR            72.954   40.660   2.8931
 T, K             2725.33  2438.21  1445.40
 RHO, KG/CU M    9.4397 0 5.8807 0 7.0584-1
 H, KJ/KG         -154.78  -582.37 -2009.80
 U, KJ/KG         -927.62 -1273.79 -2419.68
 G, KJ/KG        -23588.7 -21547.4 -14438.1
 S, KJ/(KG)(K)     8.5985   8.5985   8.5985

 M, (1/n)          29.320   29.320   29.320
 Cp, KJ/(KG)(K)    1.4970   1.4808   1.3787
 GAMMAs            1.2337   1.2369   1.2589
 SON VEL,M/SEC      976.4    924.8    718.3
 MACH NUMBER        0.000    1.000    2.681

 PERFORMANCE PARAMETERS

 Ae/At                      1.0000   4.0000
 CSTAR, M/SEC               1341.5   1341.5
 CF                         0.6893   1.4358
 Ivac, M/SEC                1672.4   2138.9
 Isp, M/SEC                  924.8   1926.1

 MASS FRACTIONS

 *CO             0.00945   *CO2            0.25241   *H              0.00001
 HNO2            0.00001   HO2             0.00003   *H2             0.00009
 H2O             0.08940   *NO             0.01411   NO2             0.00006
 *N2             0.57683   N2O             0.00001   *O              0.00056
 *OH             0.00499   *O2             0.05204

  * THERMODYNAMIC PROPERTIES FITTED TO 20000.K

 NOTE. WEIGHT FRACTION OF FUEL IN TOTAL FUELS AND OF OXIDANT IN TOTAL OXIDANTS