         NASA-GLENN CHEMICAL EQUILIBRIUM PROGRAM CEA2, FEBRUARY 5, 2004
                   BY  BONNIE MCBRIDE AND SANFORD GORDON
      REFS: NASA RP-1311, PART I, 1994 AND NASA RP-1311, PART II, 1996

 *******************************************************************************

  
 ### CEA analysis performed on Tue 12-Oct-2021 14:54:10
  
 # Problem Type: "Rocket" (Infinite Area Combustor)
  
 prob case=_______________3718 ro frozen
  
 # Pressure (24 values):
 p,atm= 1, 2, 3, 4, 5, 6, 7, 8, 9, 10, 11, 12, 13, 14, 15, 16, 17, 18, 19, 20, 21
 , 22, 23, 24
 # Supersonic Area Ratio (1 value):
 supar= 4
  
 # Oxidizer/Fuel Wt. ratio (30 values):
 o/f= 0.3, 0.5, 0.7, 0.9, 1.1, 1.3, 1.5, 1.7, 1.9, 2.1, 2.3, 2.5, 2.7, 2.9, 3.1, 
 3.3, 3.5, 3.7, 3.9, 4.1, 4.3, 4.5, 4.7, 4.9, 5.1, 5.
  
 # You selected the following fuels and oxidizers:
 reac
 fuel paraffin          wt%=100.0000
 oxid N2O               wt%=100.0000
  
 # You selected these options for output:
 # short version of output
 output short
 # Proportions of any products will be expressed as Mass Fractions.
 output massf
 # Heat will be expressed as siunits
 output siunits
  
 # Input prepared by this script:/var/www/sites/cearun.grc.nasa.gov/cgi-bin/CEARU
 N/prepareInputFile.cgi
  
 ### IMPORTANT:  The following line is the end of your CEA input file!
 end

           THEORETICAL ROCKET PERFORMANCE ASSUMING FROZEN COMPOSITION



----------------------------------------------------------------------

 Pin =    14.7 PSIA
 CASE = _______________

             REACTANT                    WT FRACTION      ENERGY      TEMP
                                          (SEE NOTE)     KJ/KG-MOL      K  
 FUEL        paraffin                     1.0000000  -1860600.000    298.150
 OXIDANT     N2O                          1.0000000         0.000      0.000

 O/F=    0.30000  %FUEL= 76.923077  R,EQ.RATIO=30.461756  PHI,EQ.RATIO=30.461756

                 CHAMBER   THROAT
 Pinf/P            1.0000   1.7451
 P, BAR            1.0132  0.58064
 T, K              747.92   694.67
 RHO, KG/CU M    4.2597-1 2.6281-1
 H, KJ/KG        -1428.71 -1556.40
 U, KJ/KG        -1666.58 -1777.34
 G, KJ/KG        -8092.97 -7746.22
 S, KJ/(KG)(K)     8.9104   8.9104

 M, (1/n)          26.143   26.143
 MW, MOL WT        12.680   12.680
 Cp, KJ/(KG)(K)    2.4384   2.3572
 GAMMAs            1.1500   1.1560
 SON VEL,M/SEC      523.0    505.4
 MACH NUMBER        0.000    1.000

 PERFORMANCE PARAMETERS

 Ae/At                      1.0000
 CSTAR, M/SEC                762.9
 CF                         0.6624
 Ivac, M/SEC                 942.5
 Isp, M/SEC                  505.4

 MASS FRACTIONS

 CH4             0.24084   *CO             0.00379   *CO2            0.01286
 *H2             0.02628   H2O             0.08149   NH3             0.00026
 *N2             0.14667   C(gr)           0.48781

  * THERMODYNAMIC PROPERTIES FITTED TO 20000.K

 NOTE. WEIGHT FRACTION OF FUEL IN TOTAL FUELS AND OF OXIDANT IN TOTAL OXIDANTS

 WARNING!!  CALCULATIONS WERE STOPPED BECAUSE NEXT POINT IS MORE
 THAN 50 K BELOW THE TEMPERATURE RANGE OF A CONDENSED SPECIES (ROCKET)

           THEORETICAL ROCKET PERFORMANCE ASSUMING FROZEN COMPOSITION







----------------------------------------------------------------------






 Pin =    29.4 PSIA
 CASE = _______________

             REACTANT                    WT FRACTION      ENERGY      TEMP
                                          (SEE NOTE)     KJ/KG-MOL      K  
 FUEL        paraffin                     1.0000000  -1860600.000    298.150
 OXIDANT     N2O                          1.0000000         0.000      0.000

 O/F=    0.30000  %FUEL= 76.923077  R,EQ.RATIO=30.461756  PHI,EQ.RATIO=30.461756

                 CHAMBER   THROAT
 Pinf/P            1.0000   1.7419
 P, BAR            2.0265   1.1634
 T, K              772.24   718.93
 RHO, KG/CU M    8.4051-1 5.1832-1
 H, KJ/KG        -1428.71 -1557.86
 U, KJ/KG        -1669.81 -1782.32
 G, KJ/KG        -8141.01 -7806.76
 S, KJ/(KG)(K)     8.6920   8.6920

 M, (1/n)          26.631   26.631
 MW, MOL WT        12.913   12.913
 Cp, KJ/(KG)(K)    2.4622   2.3820
 GAMMAs            1.1452   1.1508
 SON VEL,M/SEC      525.5    508.2
 MACH NUMBER        0.000    1.000

 PERFORMANCE PARAMETERS

 Ae/At                      1.0000
 CSTAR, M/SEC                769.3
 CF                         0.6607
 Ivac, M/SEC                 949.9
 Isp, M/SEC                  508.2

 MASS FRACTIONS

 CH4             0.25223   *CO             0.00413   *CO2            0.01295
 C2H6            0.00001   *H2             0.02343   H2O             0.08120
 NH3             0.00033   *N2             0.14661   C(gr)           0.47910

  * THERMODYNAMIC PROPERTIES FITTED TO 20000.K

 NOTE. WEIGHT FRACTION OF FUEL IN TOTAL FUELS AND OF OXIDANT IN TOTAL OXIDANTS

 WARNING!!  CALCULATIONS WERE STOPPED BECAUSE NEXT POINT IS MORE
 THAN 50 K BELOW THE TEMPERATURE RANGE OF A CONDENSED SPECIES (ROCKET)

           THEORETICAL ROCKET PERFORMANCE ASSUMING FROZEN COMPOSITION







-----------------------------------------------------



 Pin =    44.1 PSIA
 CASE = _______________

             REACTANT                    WT FRACTION      ENERGY      TEMP
                                          (SEE NOTE)     KJ/KG-MOL      K  
 FUEL        paraffin                     1.0000000  -1860600.000    298.150
 OXIDANT     N2O                          1.0000000         0.000      0.000

 O/F=    0.30000  %FUEL= 76.923077  R,EQ.RATIO=30.461756  PHI,EQ.RATIO=30.461756

                 CHAMBER   THROAT
 Pinf/P            1.0000   1.7401
 P, BAR            3.0397   1.7469
 T, K              786.45   733.13
 RHO, KG/CU M    1.2517 0 7.7164-1
 H, KJ/KG        -1428.71 -1558.64
 U, KJ/KG        -1671.56 -1785.03
 G, KJ/KG        -8165.53 -7838.71
 S, KJ/(KG)(K)     8.5661   8.5661

 M, (1/n)          26.925   26.925
 MW, MOL WT        13.053   13.053
 Cp, KJ/(KG)(K)    2.4762   2.3966
 GAMMAs            1.1425   1.1479
 SON VEL,M/SEC      526.7    509.8
 MACH NUMBER        0.000    1.000

 PERFORMANCE PARAMETERS

 Ae/At                      1.0000
 CSTAR, M/SEC                772.8
 CF                         0.6597
 Ivac, M/SEC                 953.9
 Isp, M/SEC                  509.8

 MASS FRACTIONS

 CH4             0.25887   *CO             0.00429   *CO2            0.01301
 C2H6            0.00001   *H2             0.02177   H2O             0.08105
 NH3             0.00039   *N2             0.14656   C(gr)           0.47405

  * THERMODYNAMIC PROPERTIES FITTED TO 20000.K

 NOTE. WEIGHT FRACTION OF FUEL IN TOTAL FUELS AND OF OXIDANT IN TOTAL OXIDANTS

 WARNING!!  CALCULATIONS WERE STOPPED BECAUSE NEXT POINT IS MORE
 THAN 50 K BELOW THE TEMPERATURE RANGE OF A CONDENSED SPECIES (ROCKET)

           THEORETICAL ROCKET PERFORMANCE ASSUMING FROZEN COMPOSITION

 Pin =    58.8 PSIA
 CASE = _______________

             REACTANT                    WT FRACTION      ENERGY      TEMP
                                          (SEE NOTE)     KJ/KG-MOL      K  
 FUEL        paraffin                     1.0000000  -1860600.000    298.150
 OXIDANT     N2O                          1.0000000         0.000      0.000

 O/F=    0.30000  %FUEL= 76.923077  R,EQ.RATIO=30.461756  PHI,EQ.RATIO=30.461756

                 CHAMBER   THROAT
 Pinf/P            1.0000   1.7388
 P, BAR            4.0530   2.3309
 T, K              796.48   743.17
 RHO, KG/CU M    1.6609 0 1.0237 0
 H, KJ/KG        -1428.71 -1559.16
 U, KJ/KG        -1672.74 -1786.86
 G, KJ/KG        -8180.97 -7859.47
 S, KJ/(KG)(K)     8.4776   8.4776

 M, (1/n)          27.137   27.137
 MW, MOL WT        13.154   13.154
 Cp, KJ/(KG)(K)    2.4861   2.4070
 GAMMAs            1.1406   1.1459
 SON VEL,M/SEC      527.6    510.8
 MACH NUMBER        0.000    1.000

 PERFORMANCE PARAMETERS

 Ae/At                      1.0000
 CSTAR, M/SEC                775.1
 CF                         0.6590
 Ivac, M/SEC                 956.6
 Isp, M/SEC                  510.8

 MASS FRACTIONS

 CH4             0.26355   *CO             0.00437   *CO2            0.01305
 C2H6            0.00002   *H2             0.02060   H2O             0.08097
 NH3             0.00044   *N2             0.14652   C(gr)           0.47050

  * THERMODYNAMIC PROPERTIES FITTED TO 20000.K

 NOTE. WEIGHT FRACTION OF FUEL IN TOTAL FUELS AND OF OXIDANT IN TOTAL OXIDANTS

 WARNING!!  CALCULATIONS WERE STOPPED BECAUSE NEXT POINT IS MORE
 THAN 50 K BELOW THE TEMPERATURE RANGE OF A CONDENSED SPECIES (ROCKET)

           THEORETICAL ROCKET PERFORMANCE ASSUMING FROZEN COMPOSITION

 Pin =    73.5 PSIA
 CASE = _______________

             REACTANT                    WT FRACTION      ENERGY      TEMP
                                          (SEE NOTE)     KJ/KG-MOL      K  
 FUEL        paraffin                     1.0000000  -1860600.000    298.150
 OXIDANT     N2O                          1.0000000         0.000      0.000

 O/F=    0.30000  %FUEL= 76.923077  R,EQ.RATIO=30.461756  PHI,EQ.RATIO=30.461756

                 CHAMBER   THROAT
 Pinf/P            1.0000   1.7378
 P, BAR            5.0663   2.9153
 T, K              804.21   750.92
 RHO, KG/CU M    2.0687 0 1.2749 0
 H, KJ/KG        -1428.71 -1559.54
 U, KJ/KG        -1673.61 -1788.21
 G, KJ/KG        -8191.69 -7874.34
 S, KJ/(KG)(K)     8.4095   8.4095

 M, (1/n)          27.303   27.303
 MW, MOL WT        13.232   13.232
 Cp, KJ/(KG)(K)    2.4938   2.4150
 GAMMAs            1.1391   1.1443
 SON VEL,M/SEC      528.2    511.5
 MACH NUMBER        0.000    1.000

 PERFORMANCE PARAMETERS

 Ae/At                      1.0000
 CSTAR, M/SEC                776.9
 CF                         0.6584
 Ivac, M/SEC                 958.6
 Isp, M/SEC                  511.5

 MASS FRACTIONS

 CH4             0.26714   *CO             0.00442   *CO2            0.01308
 C2H6            0.00002   *H2             0.01969   H2O             0.08091
 NH3             0.00047   *N2             0.14649   C(gr)           0.46778

  * THERMODYNAMIC PROPERTIES FITTED TO 20000.K

 NOTE. WEIGHT FRACTION OF FUEL IN TOTAL FUELS AND OF OXIDANT IN TOTAL OXIDANTS

 WARNING!!  CALCULATIONS WERE STOPPED BECAUSE NEXT POINT IS MORE
 THAN 50 K BELOW THE TEMPERATURE RANGE OF A CONDENSED SPECIES (ROCKET)

           THEORETICAL ROCKET PERFORMANCE ASSUMING FROZEN COMPOSITION

 Pin =    88.2 PSIA
 CASE = _______________

             REACTANT                    WT FRACTION      ENERGY      TEMP
                                          (SEE NOTE)     KJ/KG-MOL      K  
 FUEL        paraffin                     1.0000000  -1860600.000    298.150
 OXIDANT     N2O                          1.0000000         0.000      0.000

 O/F=    0.30000  %FUEL= 76.923077  R,EQ.RATIO=30.461756  PHI,EQ.RATIO=30.461756

                 CHAMBER   THROAT
 Pinf/P            1.0000   1.7371
 P, BAR            6.0795   3.4999
 T, K              810.49   757.21
 RHO, KG/CU M    2.4755 0 1.5254 0
 H, KJ/KG        -1428.71 -1559.84
 U, KJ/KG        -1674.29 -1789.28
 G, KJ/KG        -8199.57 -7885.62
 S, KJ/(KG)(K)     8.3541   8.3541

 M, (1/n)          27.440   27.440
 MW, MOL WT        13.297   13.297
 Cp, KJ/(KG)(K)    2.5000   2.4216
 GAMMAs            1.1379   1.1430
 SON VEL,M/SEC      528.6    512.1
 MACH NUMBER        0.000    1.000

 PERFORMANCE PARAMETERS

 Ae/At                      1.0000
 CSTAR, M/SEC                778.3
 CF                         0.6580
 Ivac, M/SEC                 960.1
 Isp, M/SEC                  512.1

 MASS FRACTIONS

 CH4             0.27005   *CO             0.00445   *CO2            0.01310
 C2H6            0.00002   *H2             0.01896   H2O             0.08087
 NH3             0.00051   *N2             0.14646   C(gr)           0.46557

  * THERMODYNAMIC PROPERTIES FITTED TO 20000.K

 NOTE. WEIGHT FRACTION OF FUEL IN TOTAL FUELS AND OF OXIDANT IN TOTAL OXIDANTS

 WARNING!!  CALCULATIONS WERE STOPPED BECAUSE NEXT POINT IS MORE
 THAN 50 K BELOW THE TEMPERATURE RANGE OF A CONDENSED SPECIES (ROCKET)

           THEORETICAL ROCKET PERFORMANCE ASSUMING FROZEN COMPOSITION

 Pin =   102.9 PSIA
 CASE = _______________

             REACTANT                    WT FRACTION      ENERGY      TEMP
                                          (SEE NOTE)     KJ/KG-MOL      K  
 FUEL        paraffin                     1.0000000  -1860600.000    298.150
 OXIDANT     N2O                          1.0000000         0.000      0.000

 O/F=    0.30000  %FUEL= 76.923077  R,EQ.RATIO=30.461756  PHI,EQ.RATIO=30.461756

                 CHAMBER   THROAT
 Pinf/P            1.0000   1.7364
 P, BAR            7.0927   4.0847
 T, K              815.76   762.50
 RHO, KG/CU M    2.8815 0 1.7754 0
 H, KJ/KG        -1428.71 -1560.08
 U, KJ/KG        -1674.85 -1790.15
 G, KJ/KG        -8205.56 -7894.49
 S, KJ/(KG)(K)     8.3075   8.3075

 M, (1/n)          27.555   27.555
 MW, MOL WT        13.351   13.351
 Cp, KJ/(KG)(K)    2.5053   2.4271
 GAMMAs            1.1369   1.1420
 SON VEL,M/SEC      529.0    512.6
 MACH NUMBER        0.000    1.000

 PERFORMANCE PARAMETERS

 Ae/At                      1.0000
 CSTAR, M/SEC                779.4
 CF                         0.6577
 Ivac, M/SEC                 961.4
 Isp, M/SEC                  512.6

 MASS FRACTIONS

 CH4             0.27249   *CO             0.00447   *CO2            0.01313
 C2H6            0.00002   *H2             0.01835   H2O             0.08084
 NH3             0.00054   *N2             0.14644   C(gr)           0.46373

  * THERMODYNAMIC PROPERTIES FITTED TO 20000.K

 NOTE. WEIGHT FRACTION OF FUEL IN TOTAL FUELS AND OF OXIDANT IN TOTAL OXIDANTS

 WARNING!!  CALCULATIONS WERE STOPPED BECAUSE NEXT POINT IS MORE
 THAN 50 K BELOW THE TEMPERATURE RANGE OF A CONDENSED SPECIES (ROCKET)

           THEORETICAL ROCKET PERFORMANCE ASSUMING FROZEN COMPOSITION

 Pin =   117.6 PSIA
 CASE = _______________

             REACTANT                    WT FRACTION      ENERGY      TEMP
                                          (SEE NOTE)     KJ/KG-MOL      K  
 FUEL        paraffin                     1.0000000  -1860600.000    298.150
 OXIDANT     N2O                          1.0000000         0.000      0.000

 O/F=    0.30000  %FUEL= 76.923077  R,EQ.RATIO=30.461756  PHI,EQ.RATIO=30.461756

                 CHAMBER   THROAT
 Pinf/P            1.0000   1.7359
 P, BAR            8.1060   4.6698
 T, K              820.29   767.05
 RHO, KG/CU M    3.2869 0 2.0250 0
 H, KJ/KG        -1428.71 -1560.28
 U, KJ/KG        -1675.32 -1790.89
 G, KJ/KG        -8210.24 -7901.67
 S, KJ/(KG)(K)     8.2672   8.2672

 M, (1/n)          27.656   27.656
 MW, MOL WT        13.398   13.398
 Cp, KJ/(KG)(K)    2.5098   2.4318
 GAMMAs            1.1361   1.1411
 SON VEL,M/SEC      529.3    513.0
 MACH NUMBER        0.000    1.000

 PERFORMANCE PARAMETERS

 Ae/At                     1.00000
 CSTAR, M/SEC                780.4
 CF                         0.6573
 Ivac, M/SEC                 962.5
 Isp, M/SEC                  513.0

 MASS FRACTIONS

 CH4             0.27459   *CO             0.00448   *CO2            0.01315
 C2H6            0.00003   *H2             0.01782   H2O             0.08081
 NH3             0.00056   *N2             0.14642   C(gr)           0.46215

  * THERMODYNAMIC PROPERTIES FITTED TO 20000.K

 NOTE. WEIGHT FRACTION OF FUEL IN TOTAL FUELS AND OF OXIDANT IN TOTAL OXIDANTS

 WARNING!!  CALCULATIONS WERE STOPPED BECAUSE NEXT POINT IS MORE
 THAN 50 K BELOW THE TEMPERATURE RANGE OF A CONDENSED SPECIES (ROCKET)

           THEORETICAL ROCKET PERFORMANCE ASSUMING FROZEN COMPOSITION

 Pin =   132.3 PSIA
 CASE = _______________

             REACTANT                    WT FRACTION      ENERGY      TEMP
                                          (SEE NOTE)     KJ/KG-MOL      K  
 FUEL        paraffin                     1.0000000  -1860600.000    298.150
 OXIDANT     N2O                          1.0000000         0.000      0.000

 O/F=    0.30000  %FUEL= 76.923077  R,EQ.RATIO=30.461756  PHI,EQ.RATIO=30.461756

                 CHAMBER   THROAT
 Pinf/P            1.0000   1.7354
 P, BAR            9.1192   5.2549
 T, K              824.26   771.04
 RHO, KG/CU M    3.6917 0 2.2742 0
 H, KJ/KG        -1428.71 -1560.45
 U, KJ/KG        -1675.73 -1791.52
 G, KJ/KG        -8213.95 -7907.58
 S, KJ/(KG)(K)     8.2319   8.2319

 M, (1/n)          27.744   27.744
 MW, MOL WT        13.440   13.440
 Cp, KJ/(KG)(K)    2.5138   2.4360
 GAMMAs            1.1354   1.1403
 SON VEL,M/SEC      529.6    513.3
 MACH NUMBER        0.000    1.000

 PERFORMANCE PARAMETERS

 Ae/At                     1.00000
 CSTAR, M/SEC                781.2
 CF                         0.6571
 Ivac, M/SEC                 963.5
 Isp, M/SEC                  513.3

 MASS FRACTIONS

 CH4             0.27642   *CO             0.00449   *CO2            0.01316
 C2H6            0.00003   *H2             0.01735   H2O             0.08080
 NH3             0.00059   *N2             0.14640   C(gr)           0.46077

  * THERMODYNAMIC PROPERTIES FITTED TO 20000.K

 NOTE. WEIGHT FRACTION OF FUEL IN TOTAL FUELS AND OF OXIDANT IN TOTAL OXIDANTS

 WARNING!!  CALCULATIONS WERE STOPPED BECAUSE NEXT POINT IS MORE
 THAN 50 K BELOW THE TEMPERATURE RANGE OF A CONDENSED SPECIES (ROCKET)

           THEORETICAL ROCKET PERFORMANCE ASSUMING FROZEN COMPOSITION

 Pin =   147.0 PSIA
 CASE = _______________

             REACTANT                    WT FRACTION      ENERGY      TEMP
                                          (SEE NOTE)     KJ/KG-MOL      K  
 FUEL        paraffin                     1.0000000  -1860600.000    298.150
 OXIDANT     N2O                          1.0000000         0.000      0.000

 O/F=    0.30000  %FUEL= 76.923077  R,EQ.RATIO=30.461756  PHI,EQ.RATIO=30.461756

                 CHAMBER   THROAT     EXIT
 Pinf/P            1.0000   1.7349   21.073
 P, BAR            10.133   5.8403  0.48083
 T, K              827.80   774.59   555.77
 RHO, KG/CU M    4.0960 0 2.5231 0 2.8951-1
 H, KJ/KG        -1428.71 -1560.60 -2054.75
 U, KJ/KG        -1676.08 -1792.07 -2220.83
 G, KJ/KG        -8216.93 -7912.53 -6612.25
 S, KJ/(KG)(K)     8.2004   8.2004   8.2004

 M, (1/n)          27.823   27.823   27.823
 MW, MOL WT        13.477   13.477   13.477
 Cp, KJ/(KG)(K)    2.5174   2.4397   2.0590
 GAMMAs            1.1347   1.1396   1.1698
 SON VEL,M/SEC      529.8    513.6    440.8
 MACH NUMBER        0.000    1.000    2.539

 PERFORMANCE PARAMETERS

 Ae/At                     1.00000   4.0000
 CSTAR, M/SEC                781.9    781.9
 CF                         0.6568   1.4310
 Ivac, M/SEC                 964.3   1267.4
 Isp, M/SEC                  513.6   1119.0

 MASS FRACTIONS

 CH4             0.27805   *CO             0.00449   *CO2            0.01318
 C2H6            0.00003   *H2             0.01694   H2O             0.08078
 NH3             0.00061   *N2             0.14638   C(gr)           0.45954

  * THERMODYNAMIC PROPERTIES FITTED TO 20000.K

 NOTE. WEIGHT FRACTION OF FUEL IN TOTAL FUELS AND OF OXIDANT IN TOTAL OXIDANTS

           THEORETICAL ROCKET PERFORMANCE ASSUMING FROZEN COMPOSITION

 Pin =   161.7 PSIA
 CASE = _______________

             REACTANT                    WT FRACTION      ENERGY      TEMP
                                          (SEE NOTE)     KJ/KG-MOL      K  
 FUEL        paraffin                     1.0000000  -1860600.000    298.150
 OXIDANT     N2O                          1.0000000         0.000      0.000

 O/F=    0.30000  %FUEL= 76.923077  R,EQ.RATIO=30.461756  PHI,EQ.RATIO=30.461756

                 CHAMBER   THROAT     EXIT
 Pinf/P            1.0000   1.7345   21.041
 P, BAR            11.146   6.4257  0.52970
 T, K              830.97   777.79   558.94
 RHO, KG/CU M    4.5000 0 2.7717 0 3.1795-1
 H, KJ/KG        -1428.71 -1560.73 -2055.74
 U, KJ/KG        -1676.39 -1792.56 -2222.34
 G, KJ/KG        -8219.33 -7916.72 -6623.33
 S, KJ/(KG)(K)     8.1719   8.1719   8.1719

 M, (1/n)          27.895   27.895   27.895
 MW, MOL WT        13.510   13.510   13.510
 Cp, KJ/(KG)(K)    2.5206   2.4431   2.0630
 GAMMAs            1.1341   1.1390   1.1689
 SON VEL,M/SEC      530.0    513.9    441.3
 MACH NUMBER        0.000    1.000    2.538

 PERFORMANCE PARAMETERS

 Ae/At                      1.0000   4.0000
 CSTAR, M/SEC                782.6    782.6
 CF                         0.6566   1.4310
 Ivac, M/SEC                 965.0   1268.6
 Isp, M/SEC                  513.8   1119.8

 MASS FRACTIONS

 CH4             0.27951   *CO             0.00449   *CO2            0.01319
 C2H6            0.00003   *H2             0.01657   H2O             0.08077
 NH3             0.00063   *N2             0.14636   C(gr)           0.45844

  * THERMODYNAMIC PROPERTIES FITTED TO 20000.K

 NOTE. WEIGHT FRACTION OF FUEL IN TOTAL FUELS AND OF OXIDANT IN TOTAL OXIDANTS

           THEORETICAL ROCKET PERFORMANCE ASSUMING FROZEN COMPOSITION

 Pin =   176.4 PSIA
 CASE = _______________

             REACTANT                    WT FRACTION      ENERGY      TEMP
                                          (SEE NOTE)     KJ/KG-MOL      K  
 FUEL        paraffin                     1.0000000  -1860600.000    298.150
 OXIDANT     N2O                          1.0000000         0.000      0.000

 O/F=    0.30000  %FUEL= 76.923077  R,EQ.RATIO=30.461756  PHI,EQ.RATIO=30.461756

                 CHAMBER   THROAT     EXIT
 Pinf/P            1.0000   1.7342   21.013
 P, BAR            12.159   7.0113  0.57864
 T, K              833.85   780.68   561.82
 RHO, KG/CU M    4.9036 0 3.0201 0 3.4635-1
 H, KJ/KG        -1428.71 -1560.85 -2056.62
 U, KJ/KG        -1676.67 -1793.00 -2223.69
 G, KJ/KG        -8221.28 -7920.30 -6633.21
 S, KJ/(KG)(K)     8.1460   8.1460   8.1460

 M, (1/n)          27.960   27.960   27.960
 MW, MOL WT        13.541   13.541   13.541
 Cp, KJ/(KG)(K)    2.5235   2.4461   2.0667
 GAMMAs            1.1336   1.1384   1.1681
 SON VEL,M/SEC      530.2    514.1    441.8
 MACH NUMBER        0.000    1.000    2.537

 PERFORMANCE PARAMETERS

 Ae/At                      1.0000   4.0000
 CSTAR, M/SEC                783.1    783.1
 CF                         0.6564   1.4309
 Ivac, M/SEC                 965.7   1269.7
 Isp, M/SEC                  514.1   1120.6

 MASS FRACTIONS

 CH4             0.28084   *CO             0.00448   *CO2            0.01321
 C2H6            0.00004   *H2             0.01623   H2O             0.08076
 NH3             0.00065   *N2             0.14634   C(gr)           0.45745

  * THERMODYNAMIC PROPERTIES FITTED TO 20000.K

 NOTE. WEIGHT FRACTION OF FUEL IN TOTAL FUELS AND OF OXIDANT IN TOTAL OXIDANTS

           THEORETICAL ROCKET PERFORMANCE ASSUMING FROZEN COMPOSITION

 Pin =   191.0 PSIA
 CASE = _______________

             REACTANT                    WT FRACTION      ENERGY      TEMP
                                          (SEE NOTE)     KJ/KG-MOL      K  
 FUEL        paraffin                     1.0000000  -1860600.000    298.150
 OXIDANT     N2O                          1.0000000         0.000      0.000

 O/F=    0.30000  %FUEL= 76.923077  R,EQ.RATIO=30.461756  PHI,EQ.RATIO=30.461756

                 CHAMBER   THROAT     EXIT
 Pinf/P            1.0000   1.7339   20.987
 P, BAR            13.172   7.5970  0.62764
 T, K              836.49   783.34   564.46
 RHO, KG/CU M    5.3068 0 3.2684 0 3.7473-1
 H, KJ/KG        -1428.71 -1560.95 -2057.42
 U, KJ/KG        -1676.92 -1793.39 -2224.92
 G, KJ/KG        -8222.86 -7923.39 -6642.11
 S, KJ/(KG)(K)     8.1222   8.1222   8.1222

 M, (1/n)          28.020   28.020   28.020
 MW, MOL WT        13.569   13.569   13.569
 Cp, KJ/(KG)(K)    2.5261   2.4489   2.0701
 GAMMAs            1.1331   1.1379   1.1673
 SON VEL,M/SEC      530.3    514.3    442.2
 MACH NUMBER        0.000    1.000    2.536

 PERFORMANCE PARAMETERS

 Ae/At                      1.0000   4.0000
 CSTAR, M/SEC                783.7    783.7
 CF                         0.6562   1.4309
 Ivac, M/SEC                 966.3   1270.7
 Isp, M/SEC                  514.3   1121.4

 MASS FRACTIONS

 CH4             0.28205   *CO             0.00447   *CO2            0.01322
 C2H6            0.00004   *H2             0.01593   H2O             0.08076
 NH3             0.00067   *N2             0.14633   C(gr)           0.45654

  * THERMODYNAMIC PROPERTIES FITTED TO 20000.K

 NOTE. WEIGHT FRACTION OF FUEL IN TOTAL FUELS AND OF OXIDANT IN TOTAL OXIDANTS

           THEORETICAL ROCKET PERFORMANCE ASSUMING FROZEN COMPOSITION

 Pin =   205.7 PSIA
 CASE = _______________

             REACTANT                    WT FRACTION      ENERGY      TEMP
                                          (SEE NOTE)     KJ/KG-MOL      K  
 FUEL        paraffin                     1.0000000  -1860600.000    298.150
 OXIDANT     N2O                          1.0000000         0.000      0.000

 O/F=    0.30000  %FUEL= 76.923077  R,EQ.RATIO=30.461756  PHI,EQ.RATIO=30.461756

                 CHAMBER   THROAT     EXIT
 Pinf/P            1.0000   1.7336   20.963
 P, BAR            14.185   8.1827  0.67669
 T, K              838.92   785.78   566.90
 RHO, KG/CU M    5.7098 0 3.5164 0 4.0307-1
 H, KJ/KG        -1428.71 -1561.04 -2058.15
 U, KJ/KG        -1677.15 -1793.75 -2226.04
 G, KJ/KG        -8224.15 -7926.06 -6650.16
 S, KJ/(KG)(K)     8.1003   8.1003   8.1003

 M, (1/n)          28.076   28.076   28.076
 MW, MOL WT        13.594   13.594   13.594
 Cp, KJ/(KG)(K)    2.5286   2.4515   2.0732
 GAMMAs            1.1327   1.1374   1.1666
 SON VEL,M/SEC      530.5    514.5    442.6
 MACH NUMBER        0.000    1.000    2.535

 PERFORMANCE PARAMETERS

 Ae/At                      1.0000   4.0000
 CSTAR, M/SEC                784.1    784.1
 CF                         0.6561   1.4309
 Ivac, M/SEC                 966.8   1271.6
 Isp, M/SEC                  514.5   1122.0

 MASS FRACTIONS

 CH4             0.28316   *CO             0.00447   *CO2            0.01323
 C2H6            0.00004   *H2             0.01564   H2O             0.08075
 NH3             0.00069   *N2             0.14631   C(gr)           0.45570

  * THERMODYNAMIC PROPERTIES FITTED TO 20000.K

 NOTE. WEIGHT FRACTION OF FUEL IN TOTAL FUELS AND OF OXIDANT IN TOTAL OXIDANTS

           THEORETICAL ROCKET PERFORMANCE ASSUMING FROZEN COMPOSITION

 Pin =   220.4 PSIA
 CASE = _______________

             REACTANT                    WT FRACTION      ENERGY      TEMP
                                          (SEE NOTE)     KJ/KG-MOL      K  
 FUEL        paraffin                     1.0000000  -1860600.000    298.150
 OXIDANT     N2O                          1.0000000         0.000      0.000

 O/F=    0.30000  %FUEL= 76.923077  R,EQ.RATIO=30.461756  PHI,EQ.RATIO=30.461756

                 CHAMBER   THROAT     EXIT
 Pinf/P            1.0000   1.7333   20.941
 P, BAR            15.199   8.7686  0.72579
 T, K              841.16   788.04   569.15
 RHO, KG/CU M    6.1126 0 3.7642 0 4.3139-1
 H, KJ/KG        -1428.71 -1561.13 -2058.82
 U, KJ/KG        -1677.36 -1794.08 -2227.06
 G, KJ/KG        -8225.18 -7928.38 -6657.50
 S, KJ/(KG)(K)     8.0798   8.0798   8.0798

 M, (1/n)          28.128   28.128   28.128
 MW, MOL WT        13.618   13.618   13.618
 Cp, KJ/(KG)(K)    2.5309   2.4539   2.0761
 GAMMAs            1.1322   1.1370   1.1660
 SON VEL,M/SEC      530.6    514.6    442.9
 MACH NUMBER        0.000    1.000    2.535

 PERFORMANCE PARAMETERS

 Ae/At                     1.00000   4.0000
 CSTAR, M/SEC                784.6    784.6
 CF                         0.6559   1.4308
 Ivac, M/SEC                 967.3   1272.5
 Isp, M/SEC                  514.6   1122.6

 MASS FRACTIONS

 CH4             0.28419   *CO             0.00446   *CO2            0.01324
 C2H6            0.00004   *H2             0.01538   H2O             0.08075
 NH3             0.00071   *N2             0.14630   C(gr)           0.45493

  * THERMODYNAMIC PROPERTIES FITTED TO 20000.K

 NOTE. WEIGHT FRACTION OF FUEL IN TOTAL FUELS AND OF OXIDANT IN TOTAL OXIDANTS

           THEORETICAL ROCKET PERFORMANCE ASSUMING FROZEN COMPOSITION

 Pin =   235.1 PSIA
 CASE = _______________

             REACTANT                    WT FRACTION      ENERGY      TEMP
                                          (SEE NOTE)     KJ/KG-MOL      K  
 FUEL        paraffin                     1.0000000  -1860600.000    298.150
 OXIDANT     N2O                          1.0000000         0.000      0.000

 O/F=    0.30000  %FUEL= 76.923077  R,EQ.RATIO=30.461756  PHI,EQ.RATIO=30.461756

                 CHAMBER   THROAT     EXIT
 Pinf/P            1.0000   1.7331   20.921
 P, BAR            16.212   9.3545  0.77493
 T, K              843.25   790.15   571.26
 RHO, KG/CU M    6.5150 0 4.0119 0 4.5969-1
 H, KJ/KG        -1428.71 -1561.21 -2059.44
 U, KJ/KG        -1677.55 -1794.38 -2228.01
 G, KJ/KG        -8226.00 -7930.41 -6664.23
 S, KJ/(KG)(K)     8.0608   8.0608   8.0608

 M, (1/n)          28.176   28.176   28.176
 MW, MOL WT        13.641   13.641   13.641
 Cp, KJ/(KG)(K)    2.5330   2.4561   2.0789
 GAMMAs            1.1319   1.1366   1.1654
 SON VEL,M/SEC      530.7    514.8    443.2
 MACH NUMBER        0.000    1.000    2.534

 PERFORMANCE PARAMETERS

 Ae/At                      1.0000   4.0000
 CSTAR, M/SEC                785.0    785.0
 CF                         0.6558   1.4308
 Ivac, M/SEC                 967.7   1273.2
 Isp, M/SEC                  514.8   1123.1

 MASS FRACTIONS

 CH4             0.28514   *CO             0.00445   *CO2            0.01325
 C2H6            0.00004   *H2             0.01514   H2O             0.08075
 NH3             0.00072   *N2             0.14628   C(gr)           0.45422

  * THERMODYNAMIC PROPERTIES FITTED TO 20000.K

 NOTE. WEIGHT FRACTION OF FUEL IN TOTAL FUELS AND OF OXIDANT IN TOTAL OXIDANTS

           THEORETICAL ROCKET PERFORMANCE ASSUMING FROZEN COMPOSITION

 Pin =   249.8 PSIA
 CASE = _______________

             REACTANT                    WT FRACTION      ENERGY      TEMP
                                          (SEE NOTE)     KJ/KG-MOL      K  
 FUEL        paraffin                     1.0000000  -1860600.000    298.150
 OXIDANT     N2O                          1.0000000         0.000      0.000

 O/F=    0.30000  %FUEL= 76.923077  R,EQ.RATIO=30.461756  PHI,EQ.RATIO=30.461756

                 CHAMBER   THROAT     EXIT
 Pinf/P            1.0000   1.7328   20.902
 P, BAR            17.225   9.9405  0.82411
 T, K              845.21   792.11   573.23
 RHO, KG/CU M    6.9173 0 4.2595 0 4.8797-1
 H, KJ/KG        -1428.71 -1561.28 -2060.01
 U, KJ/KG        -1677.72 -1794.66 -2228.90
 G, KJ/KG        -8226.64 -7932.18 -6670.43
 S, KJ/(KG)(K)     8.0429   8.0429   8.0429

 M, (1/n)          28.221   28.221   28.221
 MW, MOL WT        13.662   13.662   13.662
 Cp, KJ/(KG)(K)    2.5350   2.4582   2.0814
 GAMMAs            1.1315   1.1362   1.1649
 SON VEL,M/SEC      530.8    514.9    443.5
 MACH NUMBER        0.000    1.000    2.533

 PERFORMANCE PARAMETERS

 Ae/At                      1.0000   4.0000
 CSTAR, M/SEC                785.4    785.4
 CF                         0.6557   1.4308
 Ivac, M/SEC                 968.1   1274.0
 Isp, M/SEC                  514.9   1123.7

 MASS FRACTIONS

 CH4             0.28604   *CO             0.00444   *CO2            0.01326
 C2H6            0.00005   *H2             0.01491   H2O             0.08075
 NH3             0.00074   *N2             0.14627   C(gr)           0.45355

  * THERMODYNAMIC PROPERTIES FITTED TO 20000.K

 NOTE. WEIGHT FRACTION OF FUEL IN TOTAL FUELS AND OF OXIDANT IN TOTAL OXIDANTS

           THEORETICAL ROCKET PERFORMANCE ASSUMING FROZEN COMPOSITION

 Pin =   264.5 PSIA
 CASE = _______________

             REACTANT                    WT FRACTION      ENERGY      TEMP
                                          (SEE NOTE)     KJ/KG-MOL      K  
 FUEL        paraffin                     1.0000000  -1860600.000    298.150
 OXIDANT     N2O                          1.0000000         0.000      0.000

 O/F=    0.30000  %FUEL= 76.923077  R,EQ.RATIO=30.461756  PHI,EQ.RATIO=30.461756

                 CHAMBER   THROAT     EXIT
 Pinf/P            1.0000   1.7326   20.884
 P, BAR            18.238   10.527  0.87333
 T, K              847.04   793.96   575.08
 RHO, KG/CU M    7.3194 0 4.5069 0 5.1623-1
 H, KJ/KG        -1428.71 -1561.35 -2060.54
 U, KJ/KG        -1677.89 -1794.92 -2229.72
 G, KJ/KG        -8227.12 -7933.74 -6676.15
 S, KJ/(KG)(K)     8.0261   8.0261   8.0261

 M, (1/n)          28.264   28.264   28.264
 MW, MOL WT        13.682   13.682   13.682
 Cp, KJ/(KG)(K)    2.5368   2.4601   2.0838
 GAMMAs            1.1312   1.1358   1.1644
 SON VEL,M/SEC      530.9    515.1    443.8
 MACH NUMBER        0.000    1.000    2.533

 PERFORMANCE PARAMETERS

 Ae/At                      1.0000   4.0000
 CSTAR, M/SEC                785.7    785.7
 CF                         0.6555   1.4307
 Ivac, M/SEC                 968.5   1274.6
 Isp, M/SEC                  515.1   1124.1

 MASS FRACTIONS

 CH4             0.28687   *CO             0.00442   *CO2            0.01327
 C2H6            0.00005   *H2             0.01470   H2O             0.08075
 NH3             0.00076   *N2             0.14626   C(gr)           0.45292

  * THERMODYNAMIC PROPERTIES FITTED TO 20000.K

 NOTE. WEIGHT FRACTION OF FUEL IN TOTAL FUELS AND OF OXIDANT IN TOTAL OXIDANTS

           THEORETICAL ROCKET PERFORMANCE ASSUMING FROZEN COMPOSITION

 Pin =   279.2 PSIA
 CASE = _______________

             REACTANT                    WT FRACTION      ENERGY      TEMP
                                          (SEE NOTE)     KJ/KG-MOL      K  
 FUEL        paraffin                     1.0000000  -1860600.000    298.150
 OXIDANT     N2O                          1.0000000         0.000      0.000

 O/F=    0.30000  %FUEL= 76.923077  R,EQ.RATIO=30.461756  PHI,EQ.RATIO=30.461756

                 CHAMBER   THROAT     EXIT
 Pinf/P            1.0000   1.7324   20.867
 P, BAR            19.252   11.113  0.92259
 T, K              848.77   795.70   576.82
 RHO, KG/CU M    7.7213 0 4.7542 0 5.4447-1
 H, KJ/KG        -1428.71 -1561.41 -2061.04
 U, KJ/KG        -1678.04 -1795.16 -2230.48
 G, KJ/KG        -8227.48 -7935.10 -6681.46
 S, KJ/(KG)(K)     8.0102   8.0102   8.0102

 M, (1/n)          28.304   28.304   28.304
 MW, MOL WT        13.700   13.700   13.700
 Cp, KJ/(KG)(K)    2.5386   2.4619   2.0860
 GAMMAs            1.1309   1.1355   1.1639
 SON VEL,M/SEC      531.0    515.2    444.1
 MACH NUMBER        0.000    1.000    2.532

 PERFORMANCE PARAMETERS

 Ae/At                      1.0000   4.0000
 CSTAR, M/SEC                786.0    786.0
 CF                         0.6554   1.4307
 Ivac, M/SEC                 968.9   1275.2
 Isp, M/SEC                  515.2   1124.6

 MASS FRACTIONS

 CH4             0.28766   *CO             0.00441   *CO2            0.01328
 C2H6            0.00005   *H2             0.01450   H2O             0.08075
 NH3             0.00077   *N2             0.14625   C(gr)           0.45233

  * THERMODYNAMIC PROPERTIES FITTED TO 20000.K

 NOTE. WEIGHT FRACTION OF FUEL IN TOTAL FUELS AND OF OXIDANT IN TOTAL OXIDANTS

           THEORETICAL ROCKET PERFORMANCE ASSUMING FROZEN COMPOSITION

 Pin =   293.9 PSIA
 CASE = _______________

             REACTANT                    WT FRACTION      ENERGY      TEMP
                                          (SEE NOTE)     KJ/KG-MOL      K  
 FUEL        paraffin                     1.0000000  -1860600.000    298.150
 OXIDANT     N2O                          1.0000000         0.000      0.000

 O/F=    0.30000  %FUEL= 76.923077  R,EQ.RATIO=30.461756  PHI,EQ.RATIO=30.461756

                 CHAMBER   THROAT     EXIT
 Pinf/P            1.0000   1.7322   20.851
 P, BAR            20.265   11.699  0.97188
 T, K              850.39   797.34   578.47
 RHO, KG/CU M    8.1230 0 5.0014 0 5.7270-1
 H, KJ/KG        -1428.71 -1561.47 -2061.50
 U, KJ/KG        -1678.18 -1795.38 -2231.20
 G, KJ/KG        -8227.72 -7936.30 -6686.41
 S, KJ/(KG)(K)     7.9951   7.9951   7.9951

 M, (1/n)          28.342   28.342   28.342
 MW, MOL WT        13.718   13.718   13.718
 Cp, KJ/(KG)(K)    2.5403   2.4637   2.0881
 GAMMAs            1.1306   1.1352   1.1635
 SON VEL,M/SEC      531.1    515.3    444.3
 MACH NUMBER        0.000    1.000    2.532

 PERFORMANCE PARAMETERS

 Ae/At                     1.00000   4.0000
 CSTAR, M/SEC                786.3    786.3
 CF                         0.6553   1.4307
 Ivac, M/SEC                 969.2   1275.8
 Isp, M/SEC                  515.3   1125.0

 MASS FRACTIONS

 CH4             0.28840   *CO             0.00440   *CO2            0.01329
 C2H6            0.00005   *H2             0.01431   H2O             0.08075
 NH3             0.00078   *N2             0.14624   C(gr)           0.45178

  * THERMODYNAMIC PROPERTIES FITTED TO 20000.K

 NOTE. WEIGHT FRACTION OF FUEL IN TOTAL FUELS AND OF OXIDANT IN TOTAL OXIDANTS

           THEORETICAL ROCKET PERFORMANCE ASSUMING FROZEN COMPOSITION

 Pin =   308.6 PSIA
 CASE = _______________

             REACTANT                    WT FRACTION      ENERGY      TEMP
                                          (SEE NOTE)     KJ/KG-MOL      K  
 FUEL        paraffin                     1.0000000  -1860600.000    298.150
 OXIDANT     N2O                          1.0000000         0.000      0.000

 O/F=    0.30000  %FUEL= 76.923077  R,EQ.RATIO=30.461756  PHI,EQ.RATIO=30.461756

                 CHAMBER   THROAT     EXIT
 Pinf/P            1.0000   1.7320   20.837
 P, BAR            21.278   12.285   1.0212
 T, K              851.94   798.89   580.03
 RHO, KG/CU M    8.5246 0 5.2485 0 6.0091-1
 H, KJ/KG        -1428.71 -1561.53 -2061.94
 U, KJ/KG        -1678.32 -1795.59 -2231.88
 G, KJ/KG        -8227.86 -7937.36 -6691.03
 S, KJ/(KG)(K)     7.9808   7.9808   7.9808

 M, (1/n)          28.378   28.378   28.378
 MW, MOL WT        13.734   13.734   13.734
 Cp, KJ/(KG)(K)    2.5418   2.4653   2.0902
 GAMMAs            1.1303   1.1349   1.1630
 SON VEL,M/SEC      531.2    515.4    444.6
 MACH NUMBER        0.000    1.000    2.531

 PERFORMANCE PARAMETERS

 Ae/At                      1.0000   4.0000
 CSTAR, M/SEC                786.6    786.6
 CF                         0.6552   1.4307
 Ivac, M/SEC                 969.6   1276.4
 Isp, M/SEC                  515.4   1125.4

 MASS FRACTIONS

 CH4             0.28911   *CO             0.00439   *CO2            0.01330
 C2H6            0.00005   *H2             0.01413   H2O             0.08075
 NH3             0.00080   *N2             0.14622   C(gr)           0.45125

  * THERMODYNAMIC PROPERTIES FITTED TO 20000.K

 NOTE. WEIGHT FRACTION OF FUEL IN TOTAL FUELS AND OF OXIDANT IN TOTAL OXIDANTS

           THEORETICAL ROCKET PERFORMANCE ASSUMING FROZEN COMPOSITION

 Pin =   323.3 PSIA
 CASE = _______________

             REACTANT                    WT FRACTION      ENERGY      TEMP
                                          (SEE NOTE)     KJ/KG-MOL      K  
 FUEL        paraffin                     1.0000000  -1860600.000    298.150
 OXIDANT     N2O                          1.0000000         0.000      0.000

 O/F=    0.30000  %FUEL= 76.923077  R,EQ.RATIO=30.461756  PHI,EQ.RATIO=30.461756

                 CHAMBER   THROAT     EXIT
 Pinf/P            1.0000   1.7319   20.822
 P, BAR            22.291   12.871   1.0706
 T, K              853.40   800.37   581.51
 RHO, KG/CU M    8.9260 0 5.4955 0 6.2910-1
 H, KJ/KG        -1428.71 -1561.58 -2062.35
 U, KJ/KG        -1678.44 -1795.79 -2232.52
 G, KJ/KG        -8227.92 -7938.28 -6695.35
 S, KJ/(KG)(K)     7.9672   7.9672   7.9672

 M, (1/n)          28.412   28.412   28.412
 MW, MOL WT        13.750   13.750   13.750
 Cp, KJ/(KG)(K)    2.5433   2.4669   2.0921
 GAMMAs            1.1300   1.1346   1.1626
 SON VEL,M/SEC      531.2    515.5    444.8
 MACH NUMBER        0.000    1.000    2.531

 PERFORMANCE PARAMETERS

 Ae/At                      1.0000   4.0000
 CSTAR, M/SEC                786.9    786.9
 CF                         0.6551   1.4306
 Ivac, M/SEC                 969.8   1276.9
 Isp, M/SEC                  515.5   1125.7

 MASS FRACTIONS

 CH4             0.28977   *CO             0.00438   *CO2            0.01331
 C2H6            0.00006   *H2             0.01396   H2O             0.08075
 NH3             0.00081   *N2             0.14621   C(gr)           0.45076

  * THERMODYNAMIC PROPERTIES FITTED TO 20000.K

 NOTE. WEIGHT FRACTION OF FUEL IN TOTAL FUELS AND OF OXIDANT IN TOTAL OXIDANTS

           THEORETICAL ROCKET PERFORMANCE ASSUMING FROZEN COMPOSITION

 Pin =   338.0 PSIA
 CASE = _______________

             REACTANT                    WT FRACTION      ENERGY      TEMP
                                          (SEE NOTE)     KJ/KG-MOL      K  
 FUEL        paraffin                     1.0000000  -1860600.000    298.150
 OXIDANT     N2O                          1.0000000         0.000      0.000

 O/F=    0.30000  %FUEL= 76.923077  R,EQ.RATIO=30.461756  PHI,EQ.RATIO=30.461756

                 CHAMBER   THROAT     EXIT
 Pinf/P            1.0000   1.7317   20.809
 P, BAR            23.305   13.458   1.1199
 T, K              854.79   801.77   582.92
 RHO, KG/CU M    9.3273 0 5.7424 0 6.5728-1
 H, KJ/KG        -1428.71 -1561.62 -2062.74
 U, KJ/KG        -1678.56 -1795.98 -2233.13
 G, KJ/KG        -8227.90 -7939.09 -6699.41
 S, KJ/(KG)(K)     7.9542   7.9542   7.9542

 M, (1/n)          28.445   28.445   28.445
 MW, MOL WT        13.765   13.765   13.765
 Cp, KJ/(KG)(K)    2.5447   2.4684   2.0939
 GAMMAs            1.1298   1.1343   1.1622
 SON VEL,M/SEC      531.3    515.6    445.0
 MACH NUMBER        0.000    1.000    2.530

 PERFORMANCE PARAMETERS

 Ae/At                      1.0000   4.0000
 CSTAR, M/SEC                787.1    787.1
 CF                         0.6550   1.4306
 Ivac, M/SEC                 970.1   1277.4
 Isp, M/SEC                  515.6   1126.1

 MASS FRACTIONS

 CH4             0.29041   *CO             0.00437   *CO2            0.01332
 C2H6            0.00006   *H2             0.01379   H2O             0.08075
 NH3             0.00082   *N2             0.14620   C(gr)           0.45028

  * THERMODYNAMIC PROPERTIES FITTED TO 20000.K

 NOTE. WEIGHT FRACTION OF FUEL IN TOTAL FUELS AND OF OXIDANT IN TOTAL OXIDANTS

           THEORETICAL ROCKET PERFORMANCE ASSUMING FROZEN COMPOSITION

 Pin =   352.7 PSIA
 CASE = _______________

             REACTANT                    WT FRACTION      ENERGY      TEMP
                                          (SEE NOTE)     KJ/KG-MOL      K  
 FUEL        paraffin                     1.0000000  -1860600.000    298.150
 OXIDANT     N2O                          1.0000000         0.000      0.000

 O/F=    0.30000  %FUEL= 76.923077  R,EQ.RATIO=30.461756  PHI,EQ.RATIO=30.461756

                 CHAMBER   THROAT     EXIT
 Pinf/P            1.0000   1.7315   20.796
 P, BAR            24.318   14.044   1.1693
 T, K              856.12   803.11   584.27
 RHO, KG/CU M    9.7285 0 5.9892 0 6.8545-1
 H, KJ/KG        -1428.71 -1561.67 -2063.11
 U, KJ/KG        -1678.68 -1796.16 -2233.70
 G, KJ/KG        -8227.81 -7939.79 -6703.23
 S, KJ/(KG)(K)     7.9418   7.9418   7.9418

 M, (1/n)          28.477   28.477   28.477
 MW, MOL WT        13.780   13.780   13.780
 Cp, KJ/(KG)(K)    2.5461   2.4698   2.0956
 GAMMAs            1.1295   1.1341   1.1619
 SON VEL,M/SEC      531.4    515.7    445.2
 MACH NUMBER        0.000    1.000    2.530

 PERFORMANCE PARAMETERS

 Ae/At                      1.0000   4.0000
 CSTAR, M/SEC                787.4    787.4
 CF                         0.6549   1.4306
 Ivac, M/SEC                 970.4   1277.9
 Isp, M/SEC                  515.7   1126.4

 MASS FRACTIONS

 CH4             0.29101   *CO             0.00435   *CO2            0.01332
 C2H6            0.00006   *H2             0.01364   H2O             0.08075
 NH3             0.00084   *N2             0.14619   C(gr)           0.44983

  * THERMODYNAMIC PROPERTIES FITTED TO 20000.K

 NOTE. WEIGHT FRACTION OF FUEL IN TOTAL FUELS AND OF OXIDANT IN TOTAL OXIDANTS

           THEORETICAL ROCKET PERFORMANCE ASSUMING FROZEN COMPOSITION

 Pin =    14.7 PSIA
 CASE = _______________

             REACTANT                    WT FRACTION      ENERGY      TEMP
                                          (SEE NOTE)     KJ/KG-MOL      K  
 FUEL        paraffin                     1.0000000  -1860600.000    298.150
 OXIDANT     N2O                          1.0000000         0.000      0.000

 O/F=    0.50000  %FUEL= 66.666667  R,EQ.RATIO=18.277054  PHI,EQ.RATIO=18.277054

                 CHAMBER   THROAT
 Pinf/P            1.0000   1.7571
 P, BAR            1.0132  0.57667
 T, K              818.20   753.07
 RHO, KG/CU M    3.5671-1 2.2057-1
 H, KJ/KG        -1238.21 -1391.89
 U, KJ/KG        -1522.27 -1653.34
 G, KJ/KG        -9031.52 -8564.89
 S, KJ/(KG)(K)     9.5250   9.5250

 M, (1/n)          23.950   23.950
 MW, MOL WT        12.478   12.478
 Cp, KJ/(KG)(K)    2.3946   2.3240
 GAMMAs            1.1696   1.1756
 SON VEL,M/SEC      576.4    554.4
 MACH NUMBER        0.000    1.000

 PERFORMANCE PARAMETERS

 Ae/At                      1.0000
 CSTAR, M/SEC                828.6
 CF                         0.6691
 Ivac, M/SEC                1026.0
 Isp, M/SEC                  554.4

 MASS FRACTIONS

 CH4             0.13846   *CO             0.02154   *CO2            0.03504
 *H2             0.03783   H2O             0.09390   NH3             0.00023
 *N2             0.21197   C(gr)           0.46103

  * THERMODYNAMIC PROPERTIES FITTED TO 20000.K

 NOTE. WEIGHT FRACTION OF FUEL IN TOTAL FUELS AND OF OXIDANT IN TOTAL OXIDANTS

 WARNING!!  CALCULATIONS WERE STOPPED BECAUSE NEXT POINT IS MORE
 THAN 50 K BELOW THE TEMPERATURE RANGE OF A CONDENSED SPECIES (ROCKET)

           THEORETICAL ROCKET PERFORMANCE ASSUMING FROZEN COMPOSITION

 Pin =    29.4 PSIA
 CASE = _______________

             REACTANT                    WT FRACTION      ENERGY      TEMP
                                          (SEE NOTE)     KJ/KG-MOL      K  
 FUEL        paraffin                     1.0000000  -1860600.000    298.150
 OXIDANT     N2O                          1.0000000         0.000      0.000

 O/F=    0.50000  %FUEL= 66.666667  R,EQ.RATIO=18.277054  PHI,EQ.RATIO=18.277054

                 CHAMBER   THROAT
 Pinf/P            1.0000   1.7537
 P, BAR            2.0265   1.1556
 T, K              846.90   781.45
 RHO, KG/CU M    7.0296-1 4.3442-1
 H, KJ/KG        -1238.21 -1393.83
 U, KJ/KG        -1526.50 -1659.84
 G, KJ/KG        -9103.07 -8650.93
 S, KJ/(KG)(K)     9.2867   9.2867

 M, (1/n)          24.426   24.426
 MW, MOL WT        12.743   12.743
 Cp, KJ/(KG)(K)    2.4125   2.3422
 GAMMAs            1.1643   1.1700
 SON VEL,M/SEC      579.3    557.9
 MACH NUMBER        0.000    1.000

 PERFORMANCE PARAMETERS

 Ae/At                      1.0000
 CSTAR, M/SEC                836.2
 CF                         0.6672
 Ivac, M/SEC                1034.7
 Isp, M/SEC                  557.9

 MASS FRACTIONS

 CH4             0.15177   *CO             0.02280   *CO2            0.03397
 C2H6            0.00001   *H2             0.03446   H2O             0.09397
 NH3             0.00031   *N2             0.21190   C(gr)           0.45081

  * THERMODYNAMIC PROPERTIES FITTED TO 20000.K

 NOTE. WEIGHT FRACTION OF FUEL IN TOTAL FUELS AND OF OXIDANT IN TOTAL OXIDANTS

 WARNING!!  CALCULATIONS WERE STOPPED BECAUSE NEXT POINT IS MORE
 THAN 50 K BELOW THE TEMPERATURE RANGE OF A CONDENSED SPECIES (ROCKET)

           THEORETICAL ROCKET PERFORMANCE ASSUMING FROZEN COMPOSITION

 Pin =    44.1 PSIA
 CASE = _______________

             REACTANT                    WT FRACTION      ENERGY      TEMP
                                          (SEE NOTE)     KJ/KG-MOL      K  
 FUEL        paraffin                     1.0000000  -1860600.000    298.150
 OXIDANT     N2O                          1.0000000         0.000      0.000

 O/F=    0.50000  %FUEL= 66.666667  R,EQ.RATIO=18.277054  PHI,EQ.RATIO=18.277054

                 CHAMBER   THROAT
 Pinf/P            1.0000   1.7517
 P, BAR            3.0397   1.7354
 T, K              864.08   798.50
 RHO, KG/CU M    1.0459 0 6.4613-1
 H, KJ/KG        -1238.21 -1394.90
 U, KJ/KG        -1528.85 -1663.48
 G, KJ/KG        -9144.08 -8700.70
 S, KJ/(KG)(K)     9.1495   9.1495

 M, (1/n)          24.719   24.719
 MW, MOL WT        12.905   12.905
 Cp, KJ/(KG)(K)    2.4237   2.3535
 GAMMAs            1.1611   1.1667
 SON VEL,M/SEC      580.9    559.8
 MACH NUMBER        0.000    1.000

 PERFORMANCE PARAMETERS

 Ae/At                      1.0000
 CSTAR, M/SEC                840.4
 CF                         0.6661
 Ivac, M/SEC                1039.6
 Isp, M/SEC                  559.8

 MASS FRACTIONS

 CH4             0.15966   *CO             0.02340   *CO2            0.03343
 C2H6            0.00001   *H2             0.03246   H2O             0.09402
 NH3             0.00037   *N2             0.21185   C(gr)           0.44479

  * THERMODYNAMIC PROPERTIES FITTED TO 20000.K

 NOTE. WEIGHT FRACTION OF FUEL IN TOTAL FUELS AND OF OXIDANT IN TOTAL OXIDANTS

 WARNING!!  CALCULATIONS WERE STOPPED BECAUSE NEXT POINT IS MORE
 THAN 50 K BELOW THE TEMPERATURE RANGE OF A CONDENSED SPECIES (ROCKET)

           THEORETICAL ROCKET PERFORMANCE ASSUMING FROZEN COMPOSITION

 Pin =    58.8 PSIA
 CASE = _______________

             REACTANT                    WT FRACTION      ENERGY      TEMP
                                          (SEE NOTE)     KJ/KG-MOL      K  
 FUEL        paraffin                     1.0000000  -1860600.000    298.150
 OXIDANT     N2O                          1.0000000         0.000      0.000

 O/F=    0.50000  %FUEL= 66.666667  R,EQ.RATIO=18.277054  PHI,EQ.RATIO=18.277054

                 CHAMBER   THROAT     EXIT
 Pinf/P            1.0000   1.7502   22.202
 P, BAR            4.0530   2.3157  0.18255
 T, K              876.41   810.76   550.48
 RHO, KG/CU M    1.3868 0 8.5656-1 9.9450-2
 H, KJ/KG        -1238.21 -1395.62 -1968.00
 U, KJ/KG        -1530.46 -1665.97 -2151.56
 G, KJ/KG        -9172.49 -8735.48 -6951.52
 S, KJ/(KG)(K)     9.0531   9.0531   9.0531

 M, (1/n)          24.934   24.934   24.934
 MW, MOL WT        13.024   13.024   13.024
 Cp, KJ/(KG)(K)    2.4318   2.3618   2.0159
 GAMMAs            1.1589   1.1644   1.1982
 SON VEL,M/SEC      582.0    561.1    469.0
 MACH NUMBER        0.000    1.000    2.576

 PERFORMANCE PARAMETERS

 Ae/At                      1.0000   4.0000
 CSTAR, M/SEC                843.3    843.3
 CF                         0.6653   1.4326
 Ivac, M/SEC                1042.9   1360.1
 Isp, M/SEC                  561.1   1208.1

 MASS FRACTIONS

 CH4             0.16528   *CO             0.02375   *CO2            0.03309
 C2H6            0.00001   *H2             0.03103   H2O             0.09407
 NH3             0.00042   *N2             0.21181   C(gr)           0.44052

  * THERMODYNAMIC PROPERTIES FITTED TO 20000.K

 NOTE. WEIGHT FRACTION OF FUEL IN TOTAL FUELS AND OF OXIDANT IN TOTAL OXIDANTS

           THEORETICAL ROCKET PERFORMANCE ASSUMING FROZEN COMPOSITION

 Pin =    73.5 PSIA
 CASE = _______________

             REACTANT                    WT FRACTION      ENERGY      TEMP
                                          (SEE NOTE)     KJ/KG-MOL      K  
 FUEL        paraffin                     1.0000000  -1860600.000    298.150
 OXIDANT     N2O                          1.0000000         0.000      0.000

 O/F=    0.50000  %FUEL= 66.666667  R,EQ.RATIO=18.277054  PHI,EQ.RATIO=18.277054

                 CHAMBER   THROAT     EXIT
 Pinf/P            1.0000   1.7491   22.109
 P, BAR            5.0663   2.8965  0.22915
 T, K              886.05   820.35   559.44
 RHO, KG/CU M    1.7264 0 1.0661 0 1.2367-1
 H, KJ/KG        -1238.21 -1396.15 -1971.71
 U, KJ/KG        -1531.67 -1667.85 -2157.00
 G, KJ/KG        -9194.01 -8762.01 -6994.92
 S, KJ/(KG)(K)     8.9789   8.9789   8.9789

 M, (1/n)          25.104   25.104   25.104
 MW, MOL WT        13.117   13.117   13.117
 Cp, KJ/(KG)(K)    2.4383   2.3685   2.0233
 GAMMAs            1.1572   1.1626   1.1957
 SON VEL,M/SEC      582.7    562.0    470.7
 MACH NUMBER        0.000    1.000    2.573

 PERFORMANCE PARAMETERS

 Ae/At                      1.0000   4.0000
 CSTAR, M/SEC                845.5    845.5
 CF                         0.6647   1.4324
 Ivac, M/SEC                1045.5   1364.2
 Isp, M/SEC                  562.0   1211.2

 MASS FRACTIONS

 CH4             0.16964   *CO             0.02398   *CO2            0.03285
 C2H6            0.00001   *H2             0.02993   H2O             0.09412
 NH3             0.00046   *N2             0.21178   C(gr)           0.43722

  * THERMODYNAMIC PROPERTIES FITTED TO 20000.K

 NOTE. WEIGHT FRACTION OF FUEL IN TOTAL FUELS AND OF OXIDANT IN TOTAL OXIDANTS

           THEORETICAL ROCKET PERFORMANCE ASSUMING FROZEN COMPOSITION

 Pin =    88.2 PSIA
 CASE = _______________

             REACTANT                    WT FRACTION      ENERGY      TEMP
                                          (SEE NOTE)     KJ/KG-MOL      K  
 FUEL        paraffin                     1.0000000  -1860600.000    298.150
 OXIDANT     N2O                          1.0000000         0.000      0.000

 O/F=    0.50000  %FUEL= 66.666667  R,EQ.RATIO=18.277054  PHI,EQ.RATIO=18.277054

                 CHAMBER   THROAT     EXIT
 Pinf/P            1.0000   1.7482   22.033
 P, BAR            6.0795   3.4777  0.27593
 T, K              893.96   828.23   566.85
 RHO, KG/CU M    2.0649 0 1.2749 0 1.4780-1
 H, KJ/KG        -1238.21 -1396.57 -1974.68
 U, KJ/KG        -1532.64 -1669.35 -2161.37
 G, KJ/KG        -9211.19 -8783.33 -7030.29
 S, KJ/(KG)(K)     8.9187   8.9187   8.9187

 M, (1/n)          25.245   25.245   25.245
 MW, MOL WT        13.194   13.194   13.194
 Cp, KJ/(KG)(K)    2.4437   2.3740   2.0295
 GAMMAs            1.1558   1.1611   1.1937
 SON VEL,M/SEC      583.3    562.8    472.1
 MACH NUMBER        0.000    1.000    2.571

 PERFORMANCE PARAMETERS

 Ae/At                      1.0000   4.0000
 CSTAR, M/SEC                847.3    847.3
 CF                         0.6642   1.4323
 Ivac, M/SEC                1047.5   1367.5
 Isp, M/SEC                  562.8   1213.6

 MASS FRACTIONS

 CH4             0.17320   *CO             0.02413   *CO2            0.03267
 C2H6            0.00002   *H2             0.02902   H2O             0.09417
 NH3             0.00050   *N2             0.21175   C(gr)           0.43454

  * THERMODYNAMIC PROPERTIES FITTED TO 20000.K

 NOTE. WEIGHT FRACTION OF FUEL IN TOTAL FUELS AND OF OXIDANT IN TOTAL OXIDANTS

           THEORETICAL ROCKET PERFORMANCE ASSUMING FROZEN COMPOSITION

 Pin =   102.9 PSIA
 CASE = _______________

             REACTANT                    WT FRACTION      ENERGY      TEMP
                                          (SEE NOTE)     KJ/KG-MOL      K  
 FUEL        paraffin                     1.0000000  -1860600.000    298.150
 OXIDANT     N2O                          1.0000000         0.000      0.000

 O/F=    0.50000  %FUEL= 66.666667  R,EQ.RATIO=18.277054  PHI,EQ.RATIO=18.277054

                 CHAMBER   THROAT     EXIT
 Pinf/P            1.0000   1.7474   21.969
 P, BAR            7.0927   4.0591  0.32285
 T, K              900.66   834.92   573.17
 RHO, KG/CU M    2.4025 0 1.4832 0 1.7184-1
 H, KJ/KG        -1238.21 -1396.92 -1977.15
 U, KJ/KG        -1533.43 -1670.59 -2165.02
 G, KJ/KG        -9225.38 -8801.06 -7060.07
 S, KJ/(KG)(K)     8.8681   8.8681   8.8681

 M, (1/n)          25.366   25.366   25.366
 MW, MOL WT        13.260   13.260   13.260
 Cp, KJ/(KG)(K)    2.4483   2.3787   2.0348
 GAMMAs            1.1546   1.1598   1.1920
 SON VEL,M/SEC      583.8    563.4    473.2
 MACH NUMBER        0.000    1.000    2.569

 PERFORMANCE PARAMETERS

 Ae/At                      1.0000   4.0000
 CSTAR, M/SEC                848.8    848.8
 CF                         0.6638   1.4322
 Ivac, M/SEC                1049.1   1370.2
 Isp, M/SEC                  563.4   1215.7

 MASS FRACTIONS

 CH4             0.17620   *CO             0.02423   *CO2            0.03254
 C2H6            0.00002   *H2             0.02825   H2O             0.09422
 NH3             0.00053   *N2             0.21172   C(gr)           0.43228

  * THERMODYNAMIC PROPERTIES FITTED TO 20000.K

 NOTE. WEIGHT FRACTION OF FUEL IN TOTAL FUELS AND OF OXIDANT IN TOTAL OXIDANTS

           THEORETICAL ROCKET PERFORMANCE ASSUMING FROZEN COMPOSITION

 Pin =   117.6 PSIA
 CASE = _______________

             REACTANT                    WT FRACTION      ENERGY      TEMP
                                          (SEE NOTE)     KJ/KG-MOL      K  
 FUEL        paraffin                     1.0000000  -1860600.000    298.150
 OXIDANT     N2O                          1.0000000         0.000      0.000

 O/F=    0.50000  %FUEL= 66.666667  R,EQ.RATIO=18.277054  PHI,EQ.RATIO=18.277054

                 CHAMBER   THROAT     EXIT
 Pinf/P            1.0000   1.7467   21.914
 P, BAR            8.1060   4.6407  0.36990
 T, K              906.49   840.73   578.68
 RHO, KG/CU M    2.7395 0 1.6911 0 1.9583-1
 H, KJ/KG        -1238.21 -1397.21 -1979.25
 U, KJ/KG        -1534.11 -1671.64 -2168.14
 G, KJ/KG        -9237.42 -8816.17 -7085.75
 S, KJ/(KG)(K)     8.8244   8.8244   8.8244

 M, (1/n)          25.472   25.472   25.472
 MW, MOL WT        13.318   13.318   13.318
 Cp, KJ/(KG)(K)    2.4524   2.3828   2.0395
 GAMMAs            1.1535   1.1587   1.1905
 SON VEL,M/SEC      584.2    563.9    474.2
 MACH NUMBER        0.000    1.000    2.567

 PERFORMANCE PARAMETERS

 Ae/At                      1.0000   4.0000
 CSTAR, M/SEC                850.0    850.0
 CF                         0.6634   1.4322
 Ivac, M/SEC                1050.6   1372.6
 Isp, M/SEC                  563.9   1217.4

 MASS FRACTIONS

 CH4             0.17880   *CO             0.02431   *CO2            0.03242
 C2H6            0.00002   *H2             0.02759   H2O             0.09426
 NH3             0.00056   *N2             0.21170   C(gr)           0.43034

  * THERMODYNAMIC PROPERTIES FITTED TO 20000.K

 NOTE. WEIGHT FRACTION OF FUEL IN TOTAL FUELS AND OF OXIDANT IN TOTAL OXIDANTS

           THEORETICAL ROCKET PERFORMANCE ASSUMING FROZEN COMPOSITION

 Pin =   132.3 PSIA
 CASE = _______________

             REACTANT                    WT FRACTION      ENERGY      TEMP
                                          (SEE NOTE)     KJ/KG-MOL      K  
 FUEL        paraffin                     1.0000000  -1860600.000    298.150
 OXIDANT     N2O                          1.0000000         0.000      0.000

 O/F=    0.50000  %FUEL= 66.666667  R,EQ.RATIO=18.277054  PHI,EQ.RATIO=18.277054

                 CHAMBER   THROAT     EXIT
 Pinf/P            1.0000   1.7461   21.866
 P, BAR            9.1192   5.2226  0.41705
 T, K              911.63   845.87   583.56
 RHO, KG/CU M    3.0759 0 1.8985 0 2.1975-1
 H, KJ/KG        -1238.21 -1397.46 -1981.08
 U, KJ/KG        -1534.69 -1672.55 -2170.87
 G, KJ/KG        -9247.80 -8829.29 -7108.29
 S, KJ/(KG)(K)     8.7860   8.7860   8.7860

 M, (1/n)          25.566   25.566   25.566
 MW, MOL WT        13.369   13.369   13.369
 Cp, KJ/(KG)(K)    2.4560   2.3865   2.0437
 GAMMAs            1.1526   1.1578   1.1893
 SON VEL,M/SEC      584.6    564.4    475.1
 MACH NUMBER        0.000    1.000    2.566

 PERFORMANCE PARAMETERS

 Ae/At                      1.0000   4.0000
 CSTAR, M/SEC                851.1    851.1
 CF                         0.6631   1.4321
 Ivac, M/SEC                1051.8   1374.6
 Isp, M/SEC                  564.4   1218.9

 MASS FRACTIONS

 CH4             0.18108   *CO             0.02436   *CO2            0.03233
 C2H6            0.00002   *H2             0.02700   H2O             0.09431
 NH3             0.00059   *N2             0.21167   C(gr)           0.42863

  * THERMODYNAMIC PROPERTIES FITTED TO 20000.K

 NOTE. WEIGHT FRACTION OF FUEL IN TOTAL FUELS AND OF OXIDANT IN TOTAL OXIDANTS

           THEORETICAL ROCKET PERFORMANCE ASSUMING FROZEN COMPOSITION

 Pin =   147.0 PSIA
 CASE = _______________

             REACTANT                    WT FRACTION      ENERGY      TEMP
                                          (SEE NOTE)     KJ/KG-MOL      K  
 FUEL        paraffin                     1.0000000  -1860600.000    298.150
 OXIDANT     N2O                          1.0000000         0.000      0.000

 O/F=    0.50000  %FUEL= 66.666667  R,EQ.RATIO=18.277054  PHI,EQ.RATIO=18.277054

                 CHAMBER   THROAT     EXIT
 Pinf/P            1.0000   1.7456   21.823
 P, BAR            10.133   5.8047  0.46431
 T, K              916.23   850.47   587.95
 RHO, KG/CU M    3.4117 0 2.1056 0 2.4363-1
 H, KJ/KG        -1238.21 -1397.68 -1982.69
 U, KJ/KG        -1535.20 -1673.35 -2173.27
 G, KJ/KG        -9256.90 -8840.85 -7128.36
 S, KJ/(KG)(K)     8.7518   8.7518   8.7518

 M, (1/n)          25.651   25.651   25.651
 MW, MOL WT        13.414   13.414   13.414
 Cp, KJ/(KG)(K)    2.4592   2.3898   2.0474
 GAMMAs            1.1518   1.1569   1.1881
 SON VEL,M/SEC      584.9    564.7    475.8
 MACH NUMBER        0.000    1.000    2.564

 PERFORMANCE PARAMETERS

 Ae/At                      1.0000   4.0000
 CSTAR, M/SEC                852.1    852.1
 CF                         0.6628   1.4320
 Ivac, M/SEC                1052.9   1376.4
 Isp, M/SEC                  564.7   1220.2

 MASS FRACTIONS

 CH4             0.18312   *CO             0.02439   *CO2            0.03225
 C2H6            0.00002   *H2             0.02648   H2O             0.09435
 NH3             0.00062   *N2             0.21165   C(gr)           0.42711

  * THERMODYNAMIC PROPERTIES FITTED TO 20000.K

 NOTE. WEIGHT FRACTION OF FUEL IN TOTAL FUELS AND OF OXIDANT IN TOTAL OXIDANTS

           THEORETICAL ROCKET PERFORMANCE ASSUMING FROZEN COMPOSITION

 Pin =   161.7 PSIA
 CASE = _______________

             REACTANT                    WT FRACTION      ENERGY      TEMP
                                          (SEE NOTE)     KJ/KG-MOL      K  
 FUEL        paraffin                     1.0000000  -1860600.000    298.150
 OXIDANT     N2O                          1.0000000         0.000      0.000

 O/F=    0.50000  %FUEL= 66.666667  R,EQ.RATIO=18.277054  PHI,EQ.RATIO=18.277054

                 CHAMBER   THROAT     EXIT
 Pinf/P            1.0000   1.7451   21.784
 P, BAR            11.146   6.3869  0.51165
 T, K              920.40   854.64   591.94
 RHO, KG/CU M    3.7472 0 2.3125 0 2.6746-1
 H, KJ/KG        -1238.21 -1397.87 -1984.13
 U, KJ/KG        -1535.66 -1674.07 -2175.43
 G, KJ/KG        -9264.97 -8851.15 -7146.41
 S, KJ/(KG)(K)     8.7210   8.7210   8.7210

 M, (1/n)          25.728   25.728   25.728
 MW, MOL WT        13.456   13.456   13.456
 Cp, KJ/(KG)(K)    2.4622   2.3929   2.0509
 GAMMAs            1.1511   1.1561   1.1871
 SON VEL,M/SEC      585.1    565.1    476.5
 MACH NUMBER        0.000    1.000    2.563

 PERFORMANCE PARAMETERS

 Ae/At                      1.0000   4.0000
 CSTAR, M/SEC                852.9    852.9
 CF                         0.6625   1.4320
 Ivac, M/SEC                1053.8   1378.0
 Isp, M/SEC                  565.1   1221.4

 MASS FRACTIONS

 CH4             0.18495   *CO             0.02440   *CO2            0.03219
 C2H6            0.00003   *H2             0.02601   H2O             0.09439
 NH3             0.00064   *N2             0.21163   C(gr)           0.42575

  * THERMODYNAMIC PROPERTIES FITTED TO 20000.K

 NOTE. WEIGHT FRACTION OF FUEL IN TOTAL FUELS AND OF OXIDANT IN TOTAL OXIDANTS

           THEORETICAL ROCKET PERFORMANCE ASSUMING FROZEN COMPOSITION

 Pin =   176.4 PSIA
 CASE = _______________

             REACTANT                    WT FRACTION      ENERGY      TEMP
                                          (SEE NOTE)     KJ/KG-MOL      K  
 FUEL        paraffin                     1.0000000  -1860600.000    298.150
 OXIDANT     N2O                          1.0000000         0.000      0.000

 O/F=    0.50000  %FUEL= 66.666667  R,EQ.RATIO=18.277054  PHI,EQ.RATIO=18.277054

                 CHAMBER   THROAT     EXIT
 Pinf/P            1.0000   1.7447   21.749
 P, BAR            12.159   6.9692  0.55907
 T, K              924.20   858.44   595.59
 RHO, KG/CU M    4.0822 0 2.5190 0 2.9126-1
 H, KJ/KG        -1238.21 -1398.05 -1985.43
 U, KJ/KG        -1536.07 -1674.71 -2177.38
 G, KJ/KG        -9272.19 -8860.41 -7162.80
 S, KJ/(KG)(K)     8.6929   8.6929   8.6929

 M, (1/n)          25.799   25.799   25.799
 MW, MOL WT        13.494   13.494   13.494
 Cp, KJ/(KG)(K)    2.4649   2.3957   2.0541
 GAMMAs            1.1504   1.1554   1.1861
 SON VEL,M/SEC      585.4    565.4    477.1
 MACH NUMBER        0.000    1.000    2.562

 PERFORMANCE PARAMETERS

 Ae/At                      1.0000   4.0000
 CSTAR, M/SEC                853.7    853.7
 CF                         0.6623   1.4319
 Ivac, M/SEC                1054.7   1379.5
 Isp, M/SEC                  565.4   1222.5

 MASS FRACTIONS

 CH4             0.18662   *CO             0.02441   *CO2            0.03213
 C2H6            0.00003   *H2             0.02558   H2O             0.09443
 NH3             0.00067   *N2             0.21161   C(gr)           0.42451

  * THERMODYNAMIC PROPERTIES FITTED TO 20000.K

 NOTE. WEIGHT FRACTION OF FUEL IN TOTAL FUELS AND OF OXIDANT IN TOTAL OXIDANTS

           THEORETICAL ROCKET PERFORMANCE ASSUMING FROZEN COMPOSITION

 Pin =   191.0 PSIA
 CASE = _______________

             REACTANT                    WT FRACTION      ENERGY      TEMP
                                          (SEE NOTE)     KJ/KG-MOL      K  
 FUEL        paraffin                     1.0000000  -1860600.000    298.150
 OXIDANT     N2O                          1.0000000         0.000      0.000

 O/F=    0.50000  %FUEL= 66.666667  R,EQ.RATIO=18.277054  PHI,EQ.RATIO=18.277054

                 CHAMBER   THROAT     EXIT
 Pinf/P            1.0000   1.7443   21.716
 P, BAR            13.172   7.5517  0.60656
 T, K              927.70   861.95   598.95
 RHO, KG/CU M    4.4169 0 2.7254 0 3.1502-1
 H, KJ/KG        -1238.21 -1398.20 -1986.61
 U, KJ/KG        -1536.44 -1675.29 -2179.16
 G, KJ/KG        -9278.70 -8868.81 -7177.80
 S, KJ/(KG)(K)     8.6671   8.6671   8.6671

 M, (1/n)          25.864   25.864   25.864
 MW, MOL WT        13.529   13.529   13.529
 Cp, KJ/(KG)(K)    2.4674   2.3982   2.0570
 GAMMAs            1.1498   1.1548   1.1852
 SON VEL,M/SEC      585.6    565.7    477.7
 MACH NUMBER        0.000    1.000    2.561

 PERFORMANCE PARAMETERS

 Ae/At                      1.0000   4.0000
 CSTAR, M/SEC                854.4    854.4
 CF                         0.6620   1.4319
 Ivac, M/SEC                1055.5   1380.8
 Isp, M/SEC                  565.7   1223.4

 MASS FRACTIONS

 CH4             0.18816   *CO             0.02441   *CO2            0.03209
 C2H6            0.00003   *H2             0.02519   H2O             0.09447
 NH3             0.00069   *N2             0.21159   C(gr)           0.42337

  * THERMODYNAMIC PROPERTIES FITTED TO 20000.K

 NOTE. WEIGHT FRACTION OF FUEL IN TOTAL FUELS AND OF OXIDANT IN TOTAL OXIDANTS

           THEORETICAL ROCKET PERFORMANCE ASSUMING FROZEN COMPOSITION

 Pin =   205.7 PSIA
 CASE = _______________

             REACTANT                    WT FRACTION      ENERGY      TEMP
                                          (SEE NOTE)     KJ/KG-MOL      K  
 FUEL        paraffin                     1.0000000  -1860600.000    298.150
 OXIDANT     N2O                          1.0000000         0.000      0.000

 O/F=    0.50000  %FUEL= 66.666667  R,EQ.RATIO=18.277054  PHI,EQ.RATIO=18.277054

                 CHAMBER   THROAT     EXIT
 Pinf/P            1.0000   1.7439   21.686
 P, BAR            14.185   8.1343  0.65412
 T, K              930.94   865.19   602.07
 RHO, KG/CU M    4.7512 0 2.9315 0 3.3876-1
 H, KJ/KG        -1238.21 -1398.35 -1987.69
 U, KJ/KG        -1536.78 -1675.83 -2180.79
 G, KJ/KG        -9284.62 -8876.48 -7191.61
 S, KJ/(KG)(K)     8.6433   8.6433   8.6433

 M, (1/n)          25.925   25.925   25.925
 MW, MOL WT        13.562   13.562   13.562
 Cp, KJ/(KG)(K)    2.4697   2.4006   2.0598
 GAMMAs            1.1492   1.1542   1.1844
 SON VEL,M/SEC      585.8    565.9    478.2
 MACH NUMBER        0.000    1.000    2.560

 PERFORMANCE PARAMETERS

 Ae/At                      1.0000   4.0000
 CSTAR, M/SEC                855.1    855.1
 CF                         0.6618   1.4319
 Ivac, M/SEC                1056.2   1382.0
 Isp, M/SEC                  565.9   1224.3

 MASS FRACTIONS

 CH4             0.18957   *CO             0.02441   *CO2            0.03204
 C2H6            0.00003   *H2             0.02483   H2O             0.09451
 NH3             0.00071   *N2             0.21158   C(gr)           0.42233

  * THERMODYNAMIC PROPERTIES FITTED TO 20000.K

 NOTE. WEIGHT FRACTION OF FUEL IN TOTAL FUELS AND OF OXIDANT IN TOTAL OXIDANTS

           THEORETICAL ROCKET PERFORMANCE ASSUMING FROZEN COMPOSITION

 Pin =   220.4 PSIA
 CASE = _______________

             REACTANT                    WT FRACTION      ENERGY      TEMP
                                          (SEE NOTE)     KJ/KG-MOL      K  
 FUEL        paraffin                     1.0000000  -1860600.000    298.150
 OXIDANT     N2O                          1.0000000         0.000      0.000

 O/F=    0.50000  %FUEL= 66.666667  R,EQ.RATIO=18.277054  PHI,EQ.RATIO=18.277054

                 CHAMBER   THROAT     EXIT
 Pinf/P            1.0000   1.7436   21.659
 P, BAR            15.199   8.7171  0.70174
 T, K              933.95   868.21   604.98
 RHO, KG/CU M    5.0853 0 3.1375 0 3.6246-1
 H, KJ/KG        -1238.21 -1398.48 -1988.69
 U, KJ/KG        -1537.09 -1676.31 -2182.29
 G, KJ/KG        -9290.02 -8883.52 -7204.40
 S, KJ/(KG)(K)     8.6212   8.6212   8.6212

 M, (1/n)          25.982   25.982   25.982
 MW, MOL WT        13.592   13.592   13.592
 Cp, KJ/(KG)(K)    2.4719   2.4029   2.0623
 GAMMAs            1.1487   1.1536   1.1837
 SON VEL,M/SEC      585.9    566.1    478.7
 MACH NUMBER        0.000    1.000    2.559

 PERFORMANCE PARAMETERS

 Ae/At                      1.0000   4.0000
 CSTAR, M/SEC                855.7    855.7
 CF                         0.6617   1.4318
 Ivac, M/SEC                1056.9   1383.2
 Isp, M/SEC                  566.1   1225.1

 MASS FRACTIONS

 CH4             0.19088   *CO             0.02439   *CO2            0.03201
 C2H6            0.00003   *H2             0.02449   H2O             0.09455
 NH3             0.00073   *N2             0.21156   C(gr)           0.42136

  * THERMODYNAMIC PROPERTIES FITTED TO 20000.K

 NOTE. WEIGHT FRACTION OF FUEL IN TOTAL FUELS AND OF OXIDANT IN TOTAL OXIDANTS

           THEORETICAL ROCKET PERFORMANCE ASSUMING FROZEN COMPOSITION

 Pin =   235.1 PSIA
 CASE = _______________

             REACTANT                    WT FRACTION      ENERGY      TEMP
                                          (SEE NOTE)     KJ/KG-MOL      K  
 FUEL        paraffin                     1.0000000  -1860600.000    298.150
 OXIDANT     N2O                          1.0000000         0.000      0.000

 O/F=    0.50000  %FUEL= 66.666667  R,EQ.RATIO=18.277054  PHI,EQ.RATIO=18.277054

                 CHAMBER   THROAT     EXIT
 Pinf/P            1.0000   1.7432   21.633
 P, BAR            16.212   9.2999  0.74941
 T, K              936.77   871.03   607.71
 RHO, KG/CU M    5.4191 0 3.3432 0 3.8614-1
 H, KJ/KG        -1238.21 -1398.60 -1989.61
 U, KJ/KG        -1537.38 -1676.77 -2183.69
 G, KJ/KG        -9294.98 -8890.01 -7216.30
 S, KJ/(KG)(K)     8.6006   8.6006   8.6006

 M, (1/n)          26.035   26.035   26.035
 MW, MOL WT        13.621   13.621   13.621
 Cp, KJ/(KG)(K)    2.4739   2.4050   2.0647
 GAMMAs            1.1482   1.1531   1.1830
 SON VEL,M/SEC      586.1    566.4    479.2
 MACH NUMBER        0.000    1.000    2.558

 PERFORMANCE PARAMETERS

 Ae/At                      1.0000   4.0000
 CSTAR, M/SEC                856.2    856.2
 CF                         0.6615   1.4318
 Ivac, M/SEC                1057.5   1384.2
 Isp, M/SEC                  566.4   1225.9

 MASS FRACTIONS

 CH4             0.19211   *CO             0.02438   *CO2            0.03197
 C2H6            0.00004   *H2             0.02417   H2O             0.09458
 NH3             0.00075   *N2             0.21154   C(gr)           0.42045

  * THERMODYNAMIC PROPERTIES FITTED TO 20000.K

 NOTE. WEIGHT FRACTION OF FUEL IN TOTAL FUELS AND OF OXIDANT IN TOTAL OXIDANTS

           THEORETICAL ROCKET PERFORMANCE ASSUMING FROZEN COMPOSITION

 Pin =   249.8 PSIA
 CASE = _______________

             REACTANT                    WT FRACTION      ENERGY      TEMP
                                          (SEE NOTE)     KJ/KG-MOL      K  
 FUEL        paraffin                     1.0000000  -1860600.000    298.150
 OXIDANT     N2O                          1.0000000         0.000      0.000

 O/F=    0.50000  %FUEL= 66.666667  R,EQ.RATIO=18.277054  PHI,EQ.RATIO=18.277054

                 CHAMBER   THROAT     EXIT
 Pinf/P            1.0000   1.7429   21.609
 P, BAR            17.225   9.8828  0.79714
 T, K              939.41   873.69   610.28
 RHO, KG/CU M    5.7527 0 3.5488 0 4.0980-1
 H, KJ/KG        -1238.21 -1398.71 -1990.47
 U, KJ/KG        -1537.64 -1677.19 -2184.99
 G, KJ/KG        -9299.56 -8896.03 -7227.41
 S, KJ/(KG)(K)     8.5813   8.5813   8.5813

 M, (1/n)          26.085   26.085   26.085
 MW, MOL WT        13.648   13.648   13.648
 Cp, KJ/(KG)(K)    2.4758   2.4069   2.0670
 GAMMAs            1.1478   1.1526   1.1823
 SON VEL,M/SEC      586.2    566.6    479.6
 MACH NUMBER        0.000    1.000    2.558

 PERFORMANCE PARAMETERS

 Ae/At                      1.0000   4.0000
 CSTAR, M/SEC                856.7    856.7
 CF                         0.6613   1.4317
 Ivac, M/SEC                1058.1   1385.2
 Isp, M/SEC                  566.6   1226.6

 MASS FRACTIONS

 CH4             0.19325   *CO             0.02436   *CO2            0.03195
 C2H6            0.00004   *H2             0.02388   H2O             0.09462
 NH3             0.00077   *N2             0.21153   C(gr)           0.41961

  * THERMODYNAMIC PROPERTIES FITTED TO 20000.K

 NOTE. WEIGHT FRACTION OF FUEL IN TOTAL FUELS AND OF OXIDANT IN TOTAL OXIDANTS

           THEORETICAL ROCKET PERFORMANCE ASSUMING FROZEN COMPOSITION

 Pin =   264.5 PSIA
 CASE = _______________

             REACTANT                    WT FRACTION      ENERGY      TEMP
                                          (SEE NOTE)     KJ/KG-MOL      K  
 FUEL        paraffin                     1.0000000  -1860600.000    298.150
 OXIDANT     N2O                          1.0000000         0.000      0.000

 O/F=    0.50000  %FUEL= 66.666667  R,EQ.RATIO=18.277054  PHI,EQ.RATIO=18.277054

                 CHAMBER   THROAT     EXIT
 Pinf/P            1.0000   1.7427   21.586
 P, BAR            18.238   10.466  0.84492
 T, K              941.90   876.18   612.70
 RHO, KG/CU M    6.0860 0 3.7543 0 4.3343-1
 H, KJ/KG        -1238.21 -1398.81 -1991.27
 U, KJ/KG        -1537.89 -1677.58 -2186.21
 G, KJ/KG        -9303.79 -8901.63 -7237.84
 S, KJ/(KG)(K)     8.5631   8.5631   8.5631

 M, (1/n)          26.133   26.133   26.133
 MW, MOL WT        13.673   13.673   13.673
 Cp, KJ/(KG)(K)    2.4777   2.4088   2.0692
 GAMMAs            1.1473   1.1522   1.1817
 SON VEL,M/SEC      586.4    566.7    480.0
 MACH NUMBER        0.000    1.000    2.557

 PERFORMANCE PARAMETERS

 Ae/At                      1.0000   4.0000
 CSTAR, M/SEC                857.2    857.2
 CF                         0.6612   1.4317
 Ivac, M/SEC                1058.6   1386.1
 Isp, M/SEC                  566.7   1227.2

 MASS FRACTIONS

 CH4             0.19433   *CO             0.02434   *CO2            0.03192
 C2H6            0.00004   *H2             0.02360   H2O             0.09465
 NH3             0.00078   *N2             0.21152   C(gr)           0.41882

  * THERMODYNAMIC PROPERTIES FITTED TO 20000.K

 NOTE. WEIGHT FRACTION OF FUEL IN TOTAL FUELS AND OF OXIDANT IN TOTAL OXIDANTS

           THEORETICAL ROCKET PERFORMANCE ASSUMING FROZEN COMPOSITION

 Pin =   279.2 PSIA
 CASE = _______________

             REACTANT                    WT FRACTION      ENERGY      TEMP
                                          (SEE NOTE)     KJ/KG-MOL      K  
 FUEL        paraffin                     1.0000000  -1860600.000    298.150
 OXIDANT     N2O                          1.0000000         0.000      0.000

 O/F=    0.50000  %FUEL= 66.666667  R,EQ.RATIO=18.277054  PHI,EQ.RATIO=18.277054

                 CHAMBER   THROAT     EXIT
 Pinf/P            1.0000   1.7424   21.565
 P, BAR            19.252   11.049  0.89275
 T, K              944.26   878.55   614.99
 RHO, KG/CU M    6.4191 0 3.9596 0 4.5704-1
 H, KJ/KG        -1238.21 -1398.91 -1992.03
 U, KJ/KG        -1538.13 -1677.95 -2187.36
 G, KJ/KG        -9307.73 -8906.86 -7247.65
 S, KJ/(KG)(K)     8.5459   8.5459   8.5459

 M, (1/n)          26.178   26.178   26.178
 MW, MOL WT        13.697   13.697   13.697
 Cp, KJ/(KG)(K)    2.4794   2.4106   2.0712
 GAMMAs            1.1469   1.1518   1.1811
 SON VEL,M/SEC      586.5    566.9    480.3
 MACH NUMBER        0.000    1.000    2.556

 PERFORMANCE PARAMETERS

 Ae/At                      1.0000   4.0000
 CSTAR, M/SEC                857.6    857.6
 CF                         0.6610   1.4317
 Ivac, M/SEC                1059.1   1386.9
 Isp, M/SEC                  566.9   1227.9

 MASS FRACTIONS

 CH4             0.19535   *CO             0.02431   *CO2            0.03190
 C2H6            0.00004   *H2             0.02334   H2O             0.09469
 NH3             0.00080   *N2             0.21150   C(gr)           0.41807

  * THERMODYNAMIC PROPERTIES FITTED TO 20000.K

 NOTE. WEIGHT FRACTION OF FUEL IN TOTAL FUELS AND OF OXIDANT IN TOTAL OXIDANTS

           THEORETICAL ROCKET PERFORMANCE ASSUMING FROZEN COMPOSITION

 Pin =   293.9 PSIA
 CASE = _______________

             REACTANT                    WT FRACTION      ENERGY      TEMP
                                          (SEE NOTE)     KJ/KG-MOL      K  
 FUEL        paraffin                     1.0000000  -1860600.000    298.150
 OXIDANT     N2O                          1.0000000         0.000      0.000

 O/F=    0.50000  %FUEL= 66.666667  R,EQ.RATIO=18.277054  PHI,EQ.RATIO=18.277054

                 CHAMBER   THROAT     EXIT
 Pinf/P            1.0000   1.7421   21.544
 P, BAR            20.265   11.632  0.94062
 T, K              946.49   880.79   617.17
 RHO, KG/CU M    6.7521 0 4.1648 0 4.8064-1
 H, KJ/KG        -1238.21 -1399.00 -1992.73
 U, KJ/KG        -1538.34 -1678.29 -2188.43
 G, KJ/KG        -9311.40 -8911.76 -7256.91
 S, KJ/(KG)(K)     8.5296   8.5296   8.5296

 M, (1/n)          26.221   26.221   26.221
 MW, MOL WT        13.720   13.720   13.720
 Cp, KJ/(KG)(K)    2.4810   2.4123   2.0732
 GAMMAs            1.1465   1.1513   1.1806
 SON VEL,M/SEC      586.6    567.1    480.7
 MACH NUMBER        0.000    1.000    2.556

 PERFORMANCE PARAMETERS

 Ae/At                      1.0000   4.0000
 CSTAR, M/SEC                858.1    858.1
 CF                         0.6609   1.4316
 Ivac, M/SEC                1059.6   1387.7
 Isp, M/SEC                  567.1   1228.4

 MASS FRACTIONS

 CH4             0.19631   *CO             0.02429   *CO2            0.03188
 C2H6            0.00004   *H2             0.02309   H2O             0.09472
 NH3             0.00082   *N2             0.21149   C(gr)           0.41737

  * THERMODYNAMIC PROPERTIES FITTED TO 20000.K

 NOTE. WEIGHT FRACTION OF FUEL IN TOTAL FUELS AND OF OXIDANT IN TOTAL OXIDANTS

           THEORETICAL ROCKET PERFORMANCE ASSUMING FROZEN COMPOSITION

 Pin =   308.6 PSIA
 CASE = _______________

             REACTANT                    WT FRACTION      ENERGY      TEMP
                                          (SEE NOTE)     KJ/KG-MOL      K  
[...]
 CF                         0.7015   1.4380
 Ivac, M/SEC                1635.7   2068.6
 Isp, M/SEC                  916.7   1879.3

 MASS FRACTIONS

 *CO             0.28878   *CO2            0.08076   *H              0.00002
 *H2             0.01079   H2O             0.08919   *NO             0.00001
 *N2             0.53039   *OH             0.00005

  * THERMODYNAMIC PROPERTIES FITTED TO 20000.K

 NOTE. WEIGHT FRACTION OF FUEL IN TOTAL FUELS AND OF OXIDANT IN TOTAL OXIDANTS

           THEORETICAL ROCKET PERFORMANCE ASSUMING FROZEN COMPOSITION

 Pin =   205.7 PSIA
 CASE = _______________

             REACTANT                    WT FRACTION      ENERGY      TEMP
                                          (SEE NOTE)     KJ/KG-MOL      K  
 FUEL        paraffin                     1.0000000  -1860600.000    298.150
 OXIDANT     N2O                          1.0000000         0.000      0.000

 O/F=    5.00000  %FUEL= 16.666667  R,EQ.RATIO= 1.827705  PHI,EQ.RATIO= 1.827705

                 CHAMBER   THROAT     EXIT
 Pinf/P            1.0000   1.8176   27.611
 P, BAR            14.185   7.8045  0.51377
 T, K             2175.60  1914.64  1033.56
 RHO, KG/CU M    1.8940 0 1.1841 0 1.4439-1
 H, KJ/KG         -309.55  -729.74 -2075.53
 U, KJ/KG        -1058.53 -1388.88 -2431.35
 G, KJ/KG        -22118.3 -19922.5 -12436.2
 S, KJ/(KG)(K)    10.0242  10.0242  10.0242

 M, (1/n)          24.152   24.152   24.152
 MW, MOL WT        24.152   24.152   24.152
 Cp, KJ/(KG)(K)    1.6231   1.5962   1.4364
 GAMMAs            1.2692   1.2750   1.3152
 SON VEL,M/SEC      975.0    916.7    684.1
 MACH NUMBER        0.000    1.000    2.747

 PERFORMANCE PARAMETERS

 Ae/At                      1.0000   4.0000
 CSTAR, M/SEC               1306.9   1306.9
 CF                         0.7015   1.4380
 Ivac, M/SEC                1635.7   2068.7
 Isp, M/SEC                  916.7   1879.3

 MASS FRACTIONS

 *CO             0.28879   *CO2            0.08076   *H              0.00002
 *H2             0.01079   H2O             0.08919   *NO             0.00001
 *N2             0.53039   *OH             0.00005

  * THERMODYNAMIC PROPERTIES FITTED TO 20000.K

 NOTE. WEIGHT FRACTION OF FUEL IN TOTAL FUELS AND OF OXIDANT IN TOTAL OXIDANTS

           THEORETICAL ROCKET PERFORMANCE ASSUMING FROZEN COMPOSITION

 Pin =   220.4 PSIA
 CASE = _______________

             REACTANT                    WT FRACTION      ENERGY      TEMP
                                          (SEE NOTE)     KJ/KG-MOL      K  
 FUEL        paraffin                     1.0000000  -1860600.000    298.150
 OXIDANT     N2O                          1.0000000         0.000      0.000

 O/F=    5.00000  %FUEL= 16.666667  R,EQ.RATIO= 1.827705  PHI,EQ.RATIO= 1.827705

                 CHAMBER   THROAT     EXIT
 Pinf/P            1.0000   1.8176   27.610
 P, BAR            15.199   8.3620  0.55047
 T, K             2175.71  1914.74  1033.63
 RHO, KG/CU M    2.0292 0 1.2686 0 1.5470-1
 H, KJ/KG         -309.55  -729.76 -2075.60
 U, KJ/KG        -1058.56 -1388.92 -2431.44
 G, KJ/KG        -22067.7 -19878.1 -12412.4
 S, KJ/(KG)(K)    10.0005  10.0005  10.0005

 M, (1/n)          24.152   24.152   24.152
 MW, MOL WT        24.152   24.152   24.152
 Cp, KJ/(KG)(K)    1.6231   1.5962   1.4364
 GAMMAs            1.2692   1.2750   1.3152
 SON VEL,M/SEC      975.0    916.7    684.1
 MACH NUMBER        0.000    1.000    2.747

 PERFORMANCE PARAMETERS

 Ae/At                      1.0000   4.0000
 CSTAR, M/SEC               1306.9   1306.9
 CF                         0.7015   1.4380
 Ivac, M/SEC                1635.8   2068.7
 Isp, M/SEC                  916.7   1879.4

 MASS FRACTIONS

 *CO             0.28879   *CO2            0.08075   *H              0.00002
 *H2             0.01079   H2O             0.08919   NH3             0.00001
 *NO             0.00001   *N2             0.53039   *OH             0.00004

  * THERMODYNAMIC PROPERTIES FITTED TO 20000.K

 NOTE. WEIGHT FRACTION OF FUEL IN TOTAL FUELS AND OF OXIDANT IN TOTAL OXIDANTS

           THEORETICAL ROCKET PERFORMANCE ASSUMING FROZEN COMPOSITION

 Pin =   235.1 PSIA
 CASE = _______________

             REACTANT                    WT FRACTION      ENERGY      TEMP
                                          (SEE NOTE)     KJ/KG-MOL      K  
 FUEL        paraffin                     1.0000000  -1860600.000    298.150
 OXIDANT     N2O                          1.0000000         0.000      0.000

 O/F=    5.00000  %FUEL= 16.666667  R,EQ.RATIO= 1.827705  PHI,EQ.RATIO= 1.827705

                 CHAMBER   THROAT     EXIT
 Pinf/P            1.0000   1.8176   27.610
 P, BAR            16.212   8.9195  0.58718
 T, K             2175.81  1914.83  1033.69
 RHO, KG/CU M    2.1644 0 1.3531 0 1.6501-1
 H, KJ/KG         -309.55  -729.77 -2075.67
 U, KJ/KG        -1058.59 -1388.96 -2431.52
 G, KJ/KG        -22020.4 -19836.4 -12390.1
 S, KJ/(KG)(K)     9.9783   9.9783   9.9783

 M, (1/n)          24.152   24.152   24.152
 MW, MOL WT        24.152   24.152   24.152
 Cp, KJ/(KG)(K)    1.6231   1.5962   1.4364
 GAMMAs            1.2692   1.2750   1.3152
 SON VEL,M/SEC      975.0    916.8    684.1
 MACH NUMBER        0.000    1.000    2.747

 PERFORMANCE PARAMETERS

 Ae/At                      1.0000   4.0000
 CSTAR, M/SEC               1306.9   1306.9
 CF                         0.7015   1.4380
 Ivac, M/SEC                1635.8   2068.8
 Isp, M/SEC                  916.8   1879.4

 MASS FRACTIONS

 *CO             0.28879   *CO2            0.08075   *H              0.00002
 *H2             0.01079   H2O             0.08920   NH3             0.00001
 *NO             0.00001   *N2             0.53039   *OH             0.00004

  * THERMODYNAMIC PROPERTIES FITTED TO 20000.K

 NOTE. WEIGHT FRACTION OF FUEL IN TOTAL FUELS AND OF OXIDANT IN TOTAL OXIDANTS

           THEORETICAL ROCKET PERFORMANCE ASSUMING FROZEN COMPOSITION

 Pin =   249.8 PSIA
 CASE = _______________

             REACTANT                    WT FRACTION      ENERGY      TEMP
                                          (SEE NOTE)     KJ/KG-MOL      K  
 FUEL        paraffin                     1.0000000  -1860600.000    298.150
 OXIDANT     N2O                          1.0000000         0.000      0.000

 O/F=    5.00000  %FUEL= 16.666667  R,EQ.RATIO= 1.827705  PHI,EQ.RATIO= 1.827705

                 CHAMBER   THROAT     EXIT
 Pinf/P            1.0000   1.8176   27.610
 P, BAR            17.225   9.4770  0.62388
 T, K             2175.90  1914.91  1033.74
 RHO, KG/CU M    2.2996 0 1.4376 0 1.7531-1
 H, KJ/KG         -309.55  -729.78 -2075.73
 U, KJ/KG        -1058.61 -1389.00 -2431.60
 G, KJ/KG        -21975.8 -19797.3 -12369.1
 S, KJ/(KG)(K)     9.9574   9.9574   9.9574

 M, (1/n)          24.152   24.152   24.152
 MW, MOL WT        24.152   24.152   24.152
 Cp, KJ/(KG)(K)    1.6231   1.5962   1.4364
 GAMMAs            1.2692   1.2750   1.3152
 SON VEL,M/SEC      975.0    916.8    684.1
 MACH NUMBER        0.000    1.000    2.747

 PERFORMANCE PARAMETERS

 Ae/At                      1.0000   4.0000
 CSTAR, M/SEC               1307.0   1307.0
 CF                         0.7015   1.4380
 Ivac, M/SEC                1635.8   2068.8
 Isp, M/SEC                  916.8   1879.5

 MASS FRACTIONS

 *CO             0.28879   *CO2            0.08075   *H              0.00002
 *H2             0.01079   H2O             0.08920   NH3             0.00001
 *NO             0.00001   *N2             0.53039   *OH             0.00004

  * THERMODYNAMIC PROPERTIES FITTED TO 20000.K

 NOTE. WEIGHT FRACTION OF FUEL IN TOTAL FUELS AND OF OXIDANT IN TOTAL OXIDANTS

           THEORETICAL ROCKET PERFORMANCE ASSUMING FROZEN COMPOSITION

 Pin =   264.5 PSIA
 CASE = _______________

             REACTANT                    WT FRACTION      ENERGY      TEMP
                                          (SEE NOTE)     KJ/KG-MOL      K  
 FUEL        paraffin                     1.0000000  -1860600.000    298.150
 OXIDANT     N2O                          1.0000000         0.000      0.000

 O/F=    5.00000  %FUEL= 16.666667  R,EQ.RATIO= 1.827705  PHI,EQ.RATIO= 1.827705

                 CHAMBER   THROAT     EXIT
 Pinf/P            1.0000   1.8176   27.610
 P, BAR            18.238   10.034  0.66059
 T, K             2175.98  1914.98  1033.79
 RHO, KG/CU M    2.4348 0 1.5221 0 1.8562-1
 H, KJ/KG         -309.55  -729.80 -2075.79
 U, KJ/KG        -1058.63 -1389.03 -2431.67
 G, KJ/KG        -21933.8 -19760.4 -12349.3
 S, KJ/(KG)(K)     9.9377   9.9377   9.9377

 M, (1/n)          24.153   24.153   24.153
 MW, MOL WT        24.153   24.153   24.153
 Cp, KJ/(KG)(K)    1.6231   1.5962   1.4364
 GAMMAs            1.2692   1.2750   1.3152
 SON VEL,M/SEC      975.1    916.8    684.1
 MACH NUMBER        0.000    1.000    2.747

 PERFORMANCE PARAMETERS

 Ae/At                      1.0000   4.0000
 CSTAR, M/SEC               1307.0   1307.0
 CF                         0.7014   1.4380
 Ivac, M/SEC                1635.9   2068.8
 Isp, M/SEC                  916.8   1879.5

 MASS FRACTIONS

 *CO             0.28879   *CO2            0.08074   *H              0.00002
 *H2             0.01079   H2O             0.08920   NH3             0.00001
 *NO             0.00001   *N2             0.53039   *OH             0.00004

  * THERMODYNAMIC PROPERTIES FITTED TO 20000.K

 NOTE. WEIGHT FRACTION OF FUEL IN TOTAL FUELS AND OF OXIDANT IN TOTAL OXIDANTS

           THEORETICAL ROCKET PERFORMANCE ASSUMING FROZEN COMPOSITION

 Pin =   279.2 PSIA
 CASE = _______________

             REACTANT                    WT FRACTION      ENERGY      TEMP
                                          (SEE NOTE)     KJ/KG-MOL      K  
 FUEL        paraffin                     1.0000000  -1860600.000    298.150
 OXIDANT     N2O                          1.0000000         0.000      0.000

 O/F=    5.00000  %FUEL= 16.666667  R,EQ.RATIO= 1.827705  PHI,EQ.RATIO= 1.827705

                 CHAMBER   THROAT     EXIT
 Pinf/P            1.0000   1.8176   27.609
 P, BAR            19.252   10.592  0.69729
 T, K             2176.05  1915.05  1033.84
 RHO, KG/CU M    2.5700 0 1.6067 0 1.9593-1
 H, KJ/KG         -309.55  -729.81 -2075.84
 U, KJ/KG        -1058.65 -1389.06 -2431.74
 G, KJ/KG        -21894.1 -19725.4 -12330.6
 S, KJ/(KG)(K)     9.9191   9.9191   9.9191

 M, (1/n)          24.153   24.153   24.153
 MW, MOL WT        24.153   24.153   24.153
 Cp, KJ/(KG)(K)    1.6231   1.5962   1.4365
 GAMMAs            1.2692   1.2750   1.3152
 SON VEL,M/SEC      975.1    916.8    684.2
 MACH NUMBER        0.000    1.000    2.747

 PERFORMANCE PARAMETERS

 Ae/At                      1.0000   4.0000
 CSTAR, M/SEC               1307.0   1307.0
 CF                         0.7014   1.4380
 Ivac, M/SEC                1635.9   2068.9
 Isp, M/SEC                  916.8   1879.5

 MASS FRACTIONS

 *CO             0.28880   *CO2            0.08074   *H              0.00002
 *H2             0.01079   H2O             0.08920   NH3             0.00001
 *NO             0.00001   *N2             0.53039   *OH             0.00004

  * THERMODYNAMIC PROPERTIES FITTED TO 20000.K

 NOTE. WEIGHT FRACTION OF FUEL IN TOTAL FUELS AND OF OXIDANT IN TOTAL OXIDANTS

           THEORETICAL ROCKET PERFORMANCE ASSUMING FROZEN COMPOSITION

 Pin =   293.9 PSIA
 CASE = _______________

             REACTANT                    WT FRACTION      ENERGY      TEMP
                                          (SEE NOTE)     KJ/KG-MOL      K  
 FUEL        paraffin                     1.0000000  -1860600.000    298.150
 OXIDANT     N2O                          1.0000000         0.000      0.000

 O/F=    5.00000  %FUEL= 16.666667  R,EQ.RATIO= 1.827705  PHI,EQ.RATIO= 1.827705

                 CHAMBER   THROAT     EXIT
 Pinf/P            1.0000   1.8176   27.609
 P, BAR            20.265   11.149  0.73400
 T, K             2176.12  1915.11  1033.88
 RHO, KG/CU M    2.7052 0 1.6912 0 2.0623-1
 H, KJ/KG         -309.55  -729.82 -2075.89
 U, KJ/KG        -1058.67 -1389.09 -2431.80
 G, KJ/KG        -21856.3 -19692.2 -12312.8
 S, KJ/(KG)(K)     9.9015   9.9015   9.9015

 M, (1/n)          24.153   24.153   24.153
 MW, MOL WT        24.153   24.153   24.153
 Cp, KJ/(KG)(K)    1.6231   1.5962   1.4365
 GAMMAs            1.2692   1.2750   1.3152
 SON VEL,M/SEC      975.1    916.8    684.2
 MACH NUMBER        0.000    1.000    2.747

 PERFORMANCE PARAMETERS

 Ae/At                      1.0000   4.0000
 CSTAR, M/SEC               1307.0   1307.0
 CF                         0.7014   1.4380
 Ivac, M/SEC                1635.9   2068.9
 Isp, M/SEC                  916.8   1879.5

 MASS FRACTIONS

 *CO             0.28880   *CO2            0.08074   *H              0.00002
 *H2             0.01079   H2O             0.08921   NH3             0.00001
 *N2             0.53039   *OH             0.00004

  * THERMODYNAMIC PROPERTIES FITTED TO 20000.K

 NOTE. WEIGHT FRACTION OF FUEL IN TOTAL FUELS AND OF OXIDANT IN TOTAL OXIDANTS

           THEORETICAL ROCKET PERFORMANCE ASSUMING FROZEN COMPOSITION

 Pin =   308.6 PSIA
 CASE = _______________

             REACTANT                    WT FRACTION      ENERGY      TEMP
                                          (SEE NOTE)     KJ/KG-MOL      K  
 FUEL        paraffin                     1.0000000  -1860600.000    298.150
 OXIDANT     N2O                          1.0000000         0.000      0.000

 O/F=    5.00000  %FUEL= 16.666667  R,EQ.RATIO= 1.827705  PHI,EQ.RATIO= 1.827705

                 CHAMBER   THROAT     EXIT
 Pinf/P            1.0000   1.8176   27.609
 P, BAR            21.278   11.707  0.77070
 T, K             2176.19  1915.17  1033.92
 RHO, KG/CU M    2.8404 0 1.7757 0 2.1654-1
 H, KJ/KG         -309.55  -729.83 -2075.93
 U, KJ/KG        -1058.69 -1389.11 -2431.85
 G, KJ/KG        -21820.4 -19660.7 -12295.9
 S, KJ/(KG)(K)     9.8847   9.8847   9.8847

 M, (1/n)          24.153   24.153   24.153
 MW, MOL WT        24.153   24.153   24.153
 Cp, KJ/(KG)(K)    1.6231   1.5962   1.4365
 GAMMAs            1.2692   1.2750   1.3152
 SON VEL,M/SEC      975.1    916.8    684.2
 MACH NUMBER        0.000    1.000    2.747

 PERFORMANCE PARAMETERS

 Ae/At                      1.0000   4.0000
 CSTAR, M/SEC               1307.0   1307.0
 CF                         0.7014   1.4380
 Ivac, M/SEC                1635.9   2068.9
 Isp, M/SEC                  916.8   1879.6

 MASS FRACTIONS

 *CO             0.28880   *CO2            0.08074   *H              0.00002
 *H2             0.01079   H2O             0.08921   NH3             0.00001
 *N2             0.53039   *OH             0.00004

  * THERMODYNAMIC PROPERTIES FITTED TO 20000.K

 NOTE. WEIGHT FRACTION OF FUEL IN TOTAL FUELS AND OF OXIDANT IN TOTAL OXIDANTS

           THEORETICAL ROCKET PERFORMANCE ASSUMING FROZEN COMPOSITION

 Pin =   323.3 PSIA
 CASE = _______________

             REACTANT                    WT FRACTION      ENERGY      TEMP
                                          (SEE NOTE)     KJ/KG-MOL      K  
 FUEL        paraffin                     1.0000000  -1860600.000    298.150
 OXIDANT     N2O                          1.0000000         0.000      0.000

 O/F=    5.00000  %FUEL= 16.666667  R,EQ.RATIO= 1.827705  PHI,EQ.RATIO= 1.827705

                 CHAMBER   THROAT     EXIT
 Pinf/P            1.0000   1.8176   27.609
 P, BAR            22.291   12.264  0.80741
 T, K             2176.25  1915.23  1033.96
 RHO, KG/CU M    2.9756 0 1.8602 0 2.2684-1
 H, KJ/KG         -309.55  -729.84 -2075.97
 U, KJ/KG        -1058.71 -1389.14 -2431.90
 G, KJ/KG        -21786.2 -19630.6 -12279.8
 S, KJ/(KG)(K)     9.8686   9.8686   9.8686

 M, (1/n)          24.153   24.153   24.153
 MW, MOL WT        24.153   24.153   24.153
 Cp, KJ/(KG)(K)    1.6231   1.5962   1.4365
 GAMMAs            1.2692   1.2750   1.3152
 SON VEL,M/SEC      975.1    916.8    684.2
 MACH NUMBER        0.000    1.000    2.747

 PERFORMANCE PARAMETERS

 Ae/At                      1.0000   4.0000
 CSTAR, M/SEC               1307.0   1307.0
 CF                         0.7014   1.4380
 Ivac, M/SEC                1635.9   2069.0
 Isp, M/SEC                  916.8   1879.6

 MASS FRACTIONS

 *CO             0.28880   *CO2            0.08073   *H              0.00002
 *H2             0.01079   H2O             0.08921   NH3             0.00001
 *N2             0.53039   *OH             0.00004

  * THERMODYNAMIC PROPERTIES FITTED TO 20000.K

 NOTE. WEIGHT FRACTION OF FUEL IN TOTAL FUELS AND OF OXIDANT IN TOTAL OXIDANTS

           THEORETICAL ROCKET PERFORMANCE ASSUMING FROZEN COMPOSITION

 Pin =   338.0 PSIA
 CASE = _______________

             REACTANT                    WT FRACTION      ENERGY      TEMP
                                          (SEE NOTE)     KJ/KG-MOL      K  
 FUEL        paraffin                     1.0000000  -1860600.000    298.150
 OXIDANT     N2O                          1.0000000         0.000      0.000

 O/F=    5.00000  %FUEL= 16.666667  R,EQ.RATIO= 1.827705  PHI,EQ.RATIO= 1.827705

                 CHAMBER   THROAT     EXIT
 Pinf/P            1.0000   1.8176   27.608
 P, BAR            23.305   12.822  0.84412
 T, K             2176.30  1915.28  1034.00
 RHO, KG/CU M    3.1107 0 1.9447 0 2.3715-1
 H, KJ/KG         -309.55  -729.84 -2076.01
 U, KJ/KG        -1058.72 -1389.16 -2431.95
 G, KJ/KG        -21753.4 -19601.8 -12264.3
 S, KJ/(KG)(K)     9.8533   9.8533   9.8533

 M, (1/n)          24.153   24.153   24.153
 MW, MOL WT        24.153   24.153   24.153
 Cp, KJ/(KG)(K)    1.6231   1.5962   1.4365
 GAMMAs            1.2692   1.2750   1.3152
 SON VEL,M/SEC      975.1    916.8    684.2
 MACH NUMBER        0.000    1.000    2.747

 PERFORMANCE PARAMETERS

 Ae/At                      1.0000   4.0000
 CSTAR, M/SEC               1307.1   1307.1
 CF                         0.7014   1.4380
 Ivac, M/SEC                1636.0   2069.0
 Isp, M/SEC                  916.8   1879.6

 MASS FRACTIONS

 *CO             0.28880   *CO2            0.08073   *H              0.00002
 *H2             0.01079   H2O             0.08921   NH3             0.00001
 *N2             0.53039   *OH             0.00004

  * THERMODYNAMIC PROPERTIES FITTED TO 20000.K

 NOTE. WEIGHT FRACTION OF FUEL IN TOTAL FUELS AND OF OXIDANT IN TOTAL OXIDANTS

           THEORETICAL ROCKET PERFORMANCE ASSUMING FROZEN COMPOSITION

 Pin =   352.7 PSIA
 CASE = _______________

             REACTANT                    WT FRACTION      ENERGY      TEMP
                                          (SEE NOTE)     KJ/KG-MOL      K  
 FUEL        paraffin                     1.0000000  -1860600.000    298.150
 OXIDANT     N2O                          1.0000000         0.000      0.000

 O/F=    5.00000  %FUEL= 16.666667  R,EQ.RATIO= 1.827705  PHI,EQ.RATIO= 1.827705

                 CHAMBER   THROAT     EXIT
 Pinf/P            1.0000   1.8176   27.608
 P, BAR            24.318   13.379  0.88082
 T, K             2176.35  1915.33  1034.03
 RHO, KG/CU M    3.2459 0 2.0292 0 2.4746-1
 H, KJ/KG         -309.55  -729.85 -2076.05
 U, KJ/KG        -1058.74 -1389.18 -2432.00
 G, KJ/KG        -21722.0 -19574.2 -12249.5
 S, KJ/(KG)(K)     9.8387   9.8387   9.8387

 M, (1/n)          24.153   24.153   24.153
 MW, MOL WT        24.153   24.153   24.153
 Cp, KJ/(KG)(K)    1.6231   1.5962   1.4365
 GAMMAs            1.2692   1.2750   1.3152
 SON VEL,M/SEC      975.1    916.9    684.2
 MACH NUMBER        0.000    1.000    2.747

 PERFORMANCE PARAMETERS

 Ae/At                      1.0000   4.0000
 CSTAR, M/SEC               1307.1   1307.1
 CF                         0.7014   1.4380
 Ivac, M/SEC                1636.0   2069.0
 Isp, M/SEC                  916.8   1879.6

 MASS FRACTIONS

 *CO             0.28880   *CO2            0.08073   *H              0.00001
 *H2             0.01079   H2O             0.08921   NH3             0.00001
 *N2             0.53039   *OH             0.00004

  * THERMODYNAMIC PROPERTIES FITTED TO 20000.K

 NOTE. WEIGHT FRACTION OF FUEL IN TOTAL FUELS AND OF OXIDANT IN TOTAL OXIDANTS