         NASA-GLENN CHEMICAL EQUILIBRIUM PROGRAM CEA2, FEBRUARY 5, 2004
                   BY  BONNIE MCBRIDE AND SANFORD GORDON
      REFS: NASA RP-1311, PART I, 1994 AND NASA RP-1311, PART II, 1996

 *******************************************************************************

  
 ### CEA analysis performed on Tue 12-Oct-2021 14:55:44
  
 # Problem Type: "Rocket" (Infinite Area Combustor)
  
 prob case=_______________8225 ro frozen
  
 # Pressure (24 values):
 p,atm= 49, 50, 51, 52, 53, 54, 55, 56, 57, 58, 59, 60, 61, 62, 63, 64, 65, 66, 6
 7, 68, 69, 70, 71, 72
 # Supersonic Area Ratio (1 value):
 supar= 4
  
 # Oxidizer/Fuel Wt. ratio (30 values):
 o/f= 0.3, 0.5, 0.7, 0.9, 1.1, 1.3, 1.5, 1.7, 1.9, 2.1, 2.3, 2.5, 2.7, 2.9, 3.1, 
 3.3, 3.5, 3.7, 3.9, 4.1, 4.3, 4.5, 4.7, 4.9, 5.1, 5.
  
 # You selected the following fuels and oxidizers:
 reac
 fuel paraffin          wt%=100.0000
 oxid N2O               wt%=100.0000
  
 # You selected these options for output:
 # short version of output
 output short
 # Proportions of any products will be expressed as Mass Fractions.
 output massf
 # Heat will be expressed as siunits
 output siunits
  
 # Input prepared by this script:/var/www/sites/cearun.grc.nasa.gov/cgi-bin/CEARU
 N/prepareInputFile.cgi
  
 ### IMPORTANT:  The following line is the end of your CEA input file!
 end

           THEORETICAL ROCKET PERFORMANCE ASSUMING FROZEN COMPOSITION

 Pin =   720.1 PSIA
 CASE = _______________

             REACTANT                    WT FRACTION      ENERGY      TEMP
                                          (SEE NOTE)     KJ/KG-MOL      K  
 FUEL        paraffin                     1.0000000  -1860600.000    298.150
 OXIDANT     N2O                          1.0000000         0.000      0.000

 O/F=    0.30000  %FUEL= 76.923077  R,EQ.RATIO=30.461756  PHI,EQ.RATIO=30.461756

                 CHAMBER   THROAT     EXIT
 Pinf/P            1.0000   1.7290   20.595
 P, BAR            49.649   28.715   2.4108
 T, K              877.43   824.62   606.05
 RHO, KG/CU M    1.9730 1 1.2141 1 1.3870 0
 H, KJ/KG        -1428.71 -1562.33 -2068.70
 U, KJ/KG        -1680.36 -1798.84 -2242.52
 G, KJ/KG        -8215.81 -7941.01 -6756.65
 S, KJ/(KG)(K)     7.7352   7.7352   7.7352

 M, (1/n)          28.990   28.990   28.990
 MW, MOL WT        14.015   14.015   14.015
 Cp, KJ/(KG)(K)    2.5680   2.4927   2.1239
 GAMMAs            1.1257   1.1300   1.1561
 SON VEL,M/SEC      532.2    517.0    448.3
 MACH NUMBER        0.000    1.000    2.524

 PERFORMANCE PARAMETERS

 Ae/At                      1.0000   4.0000
 CSTAR, M/SEC                791.0    791.0
 CF                         0.6535   1.4303
 Ivac, M/SEC                 974.4   1285.0
 Isp, M/SEC                  517.0   1131.4

 MASS FRACTIONS

 CH4             0.30062   *CO             0.00407   *CO2            0.01346
 C2H6            0.00010   *H2             0.01117   H2O             0.08083
 NH3             0.00107   *N2             0.14600   C(gr)           0.44269

  * THERMODYNAMIC PROPERTIES FITTED TO 20000.K

 NOTE. WEIGHT FRACTION OF FUEL IN TOTAL FUELS AND OF OXIDANT IN TOTAL OXIDANTS

           THEORETICAL ROCKET PERFORMANCE ASSUMING FROZEN COMPOSITION

 Pin =   734.8 PSIA
 CASE = _______________

             REACTANT                    WT FRACTION      ENERGY      TEMP
                                          (SEE NOTE)     KJ/KG-MOL      K  
 FUEL        paraffin                     1.0000000  -1860600.000    298.150
 OXIDANT     N2O                          1.0000000         0.000      0.000

 O/F=    0.30000  %FUEL= 76.923077  R,EQ.RATIO=30.461756  PHI,EQ.RATIO=30.461756

                 CHAMBER   THROAT     EXIT
 Pinf/P            1.0000   1.7290   20.589
 P, BAR            50.663   29.302   2.4606
 T, K              878.00   825.21   606.64
 RHO, KG/CU M    2.0129 1 1.2387 1 1.4150 0
 H, KJ/KG        -1428.71 -1562.35 -2068.84
 U, KJ/KG        -1680.40 -1798.90 -2242.74
 G, KJ/KG        -8215.17 -7940.74 -6757.85
 S, KJ/(KG)(K)     7.7295   7.7295   7.7295

 M, (1/n)          29.005   29.005   29.005
 MW, MOL WT        14.021   14.021   14.021
 Cp, KJ/(KG)(K)    2.5685   2.4934   2.1247
 GAMMAs            1.1256   1.1299   1.1560
 SON VEL,M/SEC      532.3    517.0    448.4
 MACH NUMBER        0.000    1.000    2.524

 PERFORMANCE PARAMETERS

 Ae/At                      1.0000   4.0000
 CSTAR, M/SEC                791.1    791.1
 CF                         0.6535   1.4303
 Ivac, M/SEC                 974.6   1285.2
 Isp, M/SEC                  517.0   1131.5

 MASS FRACTIONS

 CH4             0.30088   *CO             0.00406   *CO2            0.01346
 C2H6            0.00010   *H2             0.01110   H2O             0.08083
 NH3             0.00108   *N2             0.14600   C(gr)           0.44250

  * THERMODYNAMIC PROPERTIES FITTED TO 20000.K

 NOTE. WEIGHT FRACTION OF FUEL IN TOTAL FUELS AND OF OXIDANT IN TOTAL OXIDANTS

           THEORETICAL ROCKET PERFORMANCE ASSUMING FROZEN COMPOSITION

 Pin =   749.5 PSIA
 CASE = _______________

             REACTANT                    WT FRACTION      ENERGY      TEMP
                                          (SEE NOTE)     KJ/KG-MOL      K  
 FUEL        paraffin                     1.0000000  -1860600.000    298.150
 OXIDANT     N2O                          1.0000000         0.000      0.000

 O/F=    0.30000  %FUEL= 76.923077  R,EQ.RATIO=30.461756  PHI,EQ.RATIO=30.461756

                 CHAMBER   THROAT     EXIT
 Pinf/P            1.0000   1.7289   20.584
 P, BAR            51.676   29.889   2.5105
 T, K              878.56   825.77   607.22
 RHO, KG/CU M    2.0528 1 1.2633 1 1.4429 0
 H, KJ/KG        -1428.71 -1562.36 -2068.98
 U, KJ/KG        -1680.44 -1798.97 -2242.96
 G, KJ/KG        -8214.52 -7940.45 -6759.02
 S, KJ/(KG)(K)     7.7238   7.7238   7.7238

 M, (1/n)          29.018   29.018   29.018
 MW, MOL WT        14.028   14.028   14.028
 Cp, KJ/(KG)(K)    2.5691   2.4940   2.1254
 GAMMAs            1.1255   1.1298   1.1558
 SON VEL,M/SEC      532.3    517.0    448.4
 MACH NUMBER        0.000    1.000    2.523

 PERFORMANCE PARAMETERS

 Ae/At                      1.0000   4.0000
 CSTAR, M/SEC                791.2    791.2
 CF                         0.6535   1.4303
 Ivac, M/SEC                 974.7   1285.4
 Isp, M/SEC                  517.0   1131.6

 MASS FRACTIONS

 CH4             0.30113   *CO             0.00405   *CO2            0.01346
 C2H6            0.00010   *H2             0.01104   H2O             0.08083
 NH3             0.00108   *N2             0.14599   C(gr)           0.44232

  * THERMODYNAMIC PROPERTIES FITTED TO 20000.K

 NOTE. WEIGHT FRACTION OF FUEL IN TOTAL FUELS AND OF OXIDANT IN TOTAL OXIDANTS

           THEORETICAL ROCKET PERFORMANCE ASSUMING FROZEN COMPOSITION

 Pin =   764.2 PSIA
 CASE = _______________

             REACTANT                    WT FRACTION      ENERGY      TEMP
                                          (SEE NOTE)     KJ/KG-MOL      K  
 FUEL        paraffin                     1.0000000  -1860600.000    298.150
 OXIDANT     N2O                          1.0000000         0.000      0.000

 O/F=    0.30000  %FUEL= 76.923077  R,EQ.RATIO=30.461756  PHI,EQ.RATIO=30.461756

                 CHAMBER   THROAT     EXIT
 Pinf/P            1.0000   1.7288   20.579
 P, BAR            52.689   30.477   2.5603
 T, K              879.11   826.33   607.79
 RHO, KG/CU M    2.0927 1 1.2878 1 1.4709 0
 H, KJ/KG        -1428.71 -1562.38 -2069.12
 U, KJ/KG        -1680.48 -1799.03 -2243.18
 G, KJ/KG        -8213.87 -7940.16 -6760.14
 S, KJ/(KG)(K)     7.7182   7.7182   7.7182

 M, (1/n)          29.032   29.032   29.032
 MW, MOL WT        14.034   14.034   14.034
 Cp, KJ/(KG)(K)    2.5697   2.4946   2.1262
 GAMMAs            1.1254   1.1297   1.1557
 SON VEL,M/SEC      532.3    517.1    448.5
 MACH NUMBER        0.000    1.000    2.523

 PERFORMANCE PARAMETERS

 Ae/At                      1.0000   4.0000
 CSTAR, M/SEC                791.3    791.3
 CF                         0.6534   1.4302
 Ivac, M/SEC                 974.7   1285.5
 Isp, M/SEC                  517.1   1131.7

 MASS FRACTIONS

 CH4             0.30137   *CO             0.00404   *CO2            0.01347
 C2H6            0.00010   *H2             0.01097   H2O             0.08084
 NH3             0.00109   *N2             0.14598   C(gr)           0.44214

  * THERMODYNAMIC PROPERTIES FITTED TO 20000.K

 NOTE. WEIGHT FRACTION OF FUEL IN TOTAL FUELS AND OF OXIDANT IN TOTAL OXIDANTS

           THEORETICAL ROCKET PERFORMANCE ASSUMING FROZEN COMPOSITION

 Pin =   778.9 PSIA
 CASE = _______________

             REACTANT                    WT FRACTION      ENERGY      TEMP
                                          (SEE NOTE)     KJ/KG-MOL      K  
 FUEL        paraffin                     1.0000000  -1860600.000    298.150
 OXIDANT     N2O                          1.0000000         0.000      0.000

 O/F=    0.30000  %FUEL= 76.923077  R,EQ.RATIO=30.461756  PHI,EQ.RATIO=30.461756

                 CHAMBER   THROAT     EXIT
 Pinf/P            1.0000   1.7288   20.574
 P, BAR            53.702   31.064   2.6102
 T, K              879.65   826.87   608.34
 RHO, KG/CU M    2.1327 1 1.3124 1 1.4989 0
 H, KJ/KG        -1428.71 -1562.39 -2069.25
 U, KJ/KG        -1680.52 -1799.09 -2243.39
 G, KJ/KG        -8213.22 -7939.86 -6761.23
 S, KJ/(KG)(K)     7.7128   7.7128   7.7128

 M, (1/n)          29.045   29.045   29.045
 MW, MOL WT        14.040   14.040   14.040
 Cp, KJ/(KG)(K)    2.5702   2.4951   2.1269
 GAMMAs            1.1253   1.1296   1.1555
 SON VEL,M/SEC      532.3    517.1    448.6
 MACH NUMBER        0.000    1.000    2.523

 PERFORMANCE PARAMETERS

 Ae/At                      1.0000   4.0000
 CSTAR, M/SEC                791.4    791.4
 CF                         0.6534   1.4302
 Ivac, M/SEC                 974.8   1285.7
 Isp, M/SEC                  517.1   1131.8

 MASS FRACTIONS

 CH4             0.30161   *CO             0.00403   *CO2            0.01347
 C2H6            0.00010   *H2             0.01091   H2O             0.08084
 NH3             0.00110   *N2             0.14598   C(gr)           0.44196

  * THERMODYNAMIC PROPERTIES FITTED TO 20000.K

 NOTE. WEIGHT FRACTION OF FUEL IN TOTAL FUELS AND OF OXIDANT IN TOTAL OXIDANTS

           THEORETICAL ROCKET PERFORMANCE ASSUMING FROZEN COMPOSITION

 Pin =   793.6 PSIA
 CASE = _______________

             REACTANT                    WT FRACTION      ENERGY      TEMP
                                          (SEE NOTE)     KJ/KG-MOL      K  
 FUEL        paraffin                     1.0000000  -1860600.000    298.150
 OXIDANT     N2O                          1.0000000         0.000      0.000

 O/F=    0.30000  %FUEL= 76.923077  R,EQ.RATIO=30.461756  PHI,EQ.RATIO=30.461756

                 CHAMBER   THROAT     EXIT
 Pinf/P            1.0000   1.7287   20.569
 P, BAR            54.715   31.651   2.6601
 T, K              880.17   827.40   608.88
 RHO, KG/CU M    2.1726 1 1.3369 1 1.5268 0
 H, KJ/KG        -1428.71 -1562.41 -2069.38
 U, KJ/KG        -1680.55 -1799.16 -2243.60
 G, KJ/KG        -8212.56 -7939.55 -6762.28
 S, KJ/(KG)(K)     7.7074   7.7074   7.7074

 M, (1/n)          29.058   29.058   29.058
 MW, MOL WT        14.046   14.046   14.046
 Cp, KJ/(KG)(K)    2.5708   2.4957   2.1276
 GAMMAs            1.1252   1.1295   1.1554
 SON VEL,M/SEC      532.3    517.1    448.7
 MACH NUMBER        0.000    1.000    2.523

 PERFORMANCE PARAMETERS

 Ae/At                      1.0000   4.0000
 CSTAR, M/SEC                791.5    791.5
 CF                         0.6534   1.4302
 Ivac, M/SEC                 974.9   1285.9
 Isp, M/SEC                  517.1   1132.0

 MASS FRACTIONS

 CH4             0.30185   *CO             0.00402   *CO2            0.01348
 C2H6            0.00011   *H2             0.01085   H2O             0.08084
 NH3             0.00110   *N2             0.14597   C(gr)           0.44178

  * THERMODYNAMIC PROPERTIES FITTED TO 20000.K

 NOTE. WEIGHT FRACTION OF FUEL IN TOTAL FUELS AND OF OXIDANT IN TOTAL OXIDANTS

           THEORETICAL ROCKET PERFORMANCE ASSUMING FROZEN COMPOSITION

 Pin =   808.3 PSIA
 CASE = _______________

             REACTANT                    WT FRACTION      ENERGY      TEMP
                                          (SEE NOTE)     KJ/KG-MOL      K  
 FUEL        paraffin                     1.0000000  -1860600.000    298.150
 OXIDANT     N2O                          1.0000000         0.000      0.000

 O/F=    0.30000  %FUEL= 76.923077  R,EQ.RATIO=30.461756  PHI,EQ.RATIO=30.461756

                 CHAMBER   THROAT     EXIT
 Pinf/P            1.0000   1.7287   20.564
 P, BAR            55.729   32.238   2.7100
 T, K              880.69   827.92   609.41
 RHO, KG/CU M    2.2125 1 1.3615 1 1.5548 0
 H, KJ/KG        -1428.71 -1562.42 -2069.50
 U, KJ/KG        -1680.59 -1799.21 -2243.80
 G, KJ/KG        -8211.91 -7939.22 -6763.29
 S, KJ/(KG)(K)     7.7022   7.7022   7.7022

 M, (1/n)          29.071   29.071   29.071
 MW, MOL WT        14.051   14.051   14.051
 Cp, KJ/(KG)(K)    2.5713   2.4963   2.1283
 GAMMAs            1.1251   1.1294   1.1552
 SON VEL,M/SEC      532.4    517.1    448.7
 MACH NUMBER        0.000    1.000    2.523

 PERFORMANCE PARAMETERS

 Ae/At                     1.00000   4.0000
 CSTAR, M/SEC                791.5    791.5
 CF                         0.6533   1.4302
 Ivac, M/SEC                 975.0   1286.0
 Isp, M/SEC                  517.1   1132.1

 MASS FRACTIONS

 CH4             0.30208   *CO             0.00401   *CO2            0.01348
 C2H6            0.00011   *H2             0.01079   H2O             0.08084
 NH3             0.00111   *N2             0.14597   C(gr)           0.44161

  * THERMODYNAMIC PROPERTIES FITTED TO 20000.K

 NOTE. WEIGHT FRACTION OF FUEL IN TOTAL FUELS AND OF OXIDANT IN TOTAL OXIDANTS

           THEORETICAL ROCKET PERFORMANCE ASSUMING FROZEN COMPOSITION

 Pin =   823.0 PSIA
 CASE = _______________

             REACTANT                    WT FRACTION      ENERGY      TEMP
                                          (SEE NOTE)     KJ/KG-MOL      K  
 FUEL        paraffin                     1.0000000  -1860600.000    298.150
 OXIDANT     N2O                          1.0000000         0.000      0.000

 O/F=    0.30000  %FUEL= 76.923077  R,EQ.RATIO=30.461756  PHI,EQ.RATIO=30.461756

                 CHAMBER   THROAT     EXIT
 Pinf/P            1.0000   1.7286   20.560
 P, BAR            56.742   32.825   2.7598
 T, K              881.19   828.43   609.93
 RHO, KG/CU M    2.2524 1 1.3860 1 1.5828 0
 H, KJ/KG        -1428.71 -1562.44 -2069.63
 U, KJ/KG        -1680.63 -1799.27 -2244.00
 G, KJ/KG        -8211.25 -7938.89 -6764.27
 S, KJ/(KG)(K)     7.6970   7.6970   7.6970

 M, (1/n)          29.083   29.083   29.083
 MW, MOL WT        14.057   14.057   14.057
 Cp, KJ/(KG)(K)    2.5718   2.4968   2.1290
 GAMMAs            1.1251   1.1293   1.1551
 SON VEL,M/SEC      532.4    517.2    448.8
 MACH NUMBER        0.000    1.000    2.523

 PERFORMANCE PARAMETERS

 Ae/At                      1.0000   4.0000
 CSTAR, M/SEC                791.6    791.6
 CF                         0.6533   1.4302
 Ivac, M/SEC                 975.1   1286.2
 Isp, M/SEC                  517.2   1132.2

 MASS FRACTIONS

 CH4             0.30230   *CO             0.00400   *CO2            0.01348
 C2H6            0.00011   *H2             0.01073   H2O             0.08085
 NH3             0.00112   *N2             0.14596   C(gr)           0.44145

  * THERMODYNAMIC PROPERTIES FITTED TO 20000.K

 NOTE. WEIGHT FRACTION OF FUEL IN TOTAL FUELS AND OF OXIDANT IN TOTAL OXIDANTS

           THEORETICAL ROCKET PERFORMANCE ASSUMING FROZEN COMPOSITION

 Pin =   837.7 PSIA
 CASE = _______________

             REACTANT                    WT FRACTION      ENERGY      TEMP
                                          (SEE NOTE)     KJ/KG-MOL      K  
 FUEL        paraffin                     1.0000000  -1860600.000    298.150
 OXIDANT     N2O                          1.0000000         0.000      0.000

 O/F=    0.30000  %FUEL= 76.923077  R,EQ.RATIO=30.461756  PHI,EQ.RATIO=30.461756

                 CHAMBER   THROAT     EXIT
 Pinf/P            1.0000   1.7285   20.555
 P, BAR            57.755   33.413   2.8098
 T, K              881.69   828.93   610.44
 RHO, KG/CU M    2.2923 1 1.4105 1 1.6107 0
 H, KJ/KG        -1428.71 -1562.45 -2069.75
 U, KJ/KG        -1680.66 -1799.33 -2244.19
 G, KJ/KG        -8210.59 -7938.56 -6765.22
 S, KJ/(KG)(K)     7.6919   7.6919   7.6919

 M, (1/n)          29.096   29.096   29.096
 MW, MOL WT        14.063   14.063   14.063
 Cp, KJ/(KG)(K)    2.5724   2.4974   2.1296
 GAMMAs            1.1250   1.1292   1.1550
 SON VEL,M/SEC      532.4    517.2    448.9
 MACH NUMBER        0.000    1.000    2.523

 PERFORMANCE PARAMETERS

 Ae/At                      1.0000   4.0000
 CSTAR, M/SEC                791.7    791.7
 CF                         0.6533   1.4302
 Ivac, M/SEC                 975.2   1286.3
 Isp, M/SEC                  517.2   1132.3

 MASS FRACTIONS

 CH4             0.30252   *CO             0.00399   *CO2            0.01349
 C2H6            0.00011   *H2             0.01067   H2O             0.08085
 NH3             0.00113   *N2             0.14596   C(gr)           0.44129

  * THERMODYNAMIC PROPERTIES FITTED TO 20000.K

 NOTE. WEIGHT FRACTION OF FUEL IN TOTAL FUELS AND OF OXIDANT IN TOTAL OXIDANTS

           THEORETICAL ROCKET PERFORMANCE ASSUMING FROZEN COMPOSITION

 Pin =   852.4 PSIA
 CASE = _______________

             REACTANT                    WT FRACTION      ENERGY      TEMP
                                          (SEE NOTE)     KJ/KG-MOL      K  
 FUEL        paraffin                     1.0000000  -1860600.000    298.150
 OXIDANT     N2O                          1.0000000         0.000      0.000

 O/F=    0.30000  %FUEL= 76.923077  R,EQ.RATIO=30.461756  PHI,EQ.RATIO=30.461756

                 CHAMBER   THROAT     EXIT
 Pinf/P            1.0000   1.7285   20.551
 P, BAR            58.768   34.000   2.8597
 T, K              882.17   829.42   610.94
 RHO, KG/CU M    2.3322 1 1.4351 1 1.6387 0
 H, KJ/KG        -1428.71 -1562.46 -2069.86
 U, KJ/KG        -1680.70 -1799.38 -2244.38
 G, KJ/KG        -8209.92 -7938.21 -6766.15
 S, KJ/(KG)(K)     7.6870   7.6870   7.6870

 M, (1/n)          29.108   29.108   29.108
 MW, MOL WT        14.068   14.068   14.068
 Cp, KJ/(KG)(K)    2.5729   2.4979   2.1303
 GAMMAs            1.1249   1.1291   1.1549
 SON VEL,M/SEC      532.4    517.2    448.9
 MACH NUMBER        0.000    1.000    2.522

 PERFORMANCE PARAMETERS

 Ae/At                      1.0000   4.0000
 CSTAR, M/SEC                791.8    791.8
 CF                         0.6532   1.4302
 Ivac, M/SEC                 975.3   1286.5
 Isp, M/SEC                  517.2   1132.4

 MASS FRACTIONS

 CH4             0.30274   *CO             0.00398   *CO2            0.01349
 C2H6            0.00011   *H2             0.01062   H2O             0.08085
 NH3             0.00113   *N2             0.14595   C(gr)           0.44113

  * THERMODYNAMIC PROPERTIES FITTED TO 20000.K

 NOTE. WEIGHT FRACTION OF FUEL IN TOTAL FUELS AND OF OXIDANT IN TOTAL OXIDANTS

           THEORETICAL ROCKET PERFORMANCE ASSUMING FROZEN COMPOSITION

 Pin =   867.1 PSIA
 CASE = _______________

             REACTANT                    WT FRACTION      ENERGY      TEMP
                                          (SEE NOTE)     KJ/KG-MOL      K  
 FUEL        paraffin                     1.0000000  -1860600.000    298.150
 OXIDANT     N2O                          1.0000000         0.000      0.000

 O/F=    0.30000  %FUEL= 76.923077  R,EQ.RATIO=30.461756  PHI,EQ.RATIO=30.461756

                 CHAMBER   THROAT     EXIT
 Pinf/P            1.0000   1.7284   20.546
 P, BAR            59.782   34.587   2.9096
 T, K              882.64   829.90   611.43
 RHO, KG/CU M    2.3721 1 1.4596 1 1.6666 0
 H, KJ/KG        -1428.71 -1562.48 -2069.98
 U, KJ/KG        -1680.73 -1799.44 -2244.56
 G, KJ/KG        -8209.26 -7937.86 -6767.04
 S, KJ/(KG)(K)     7.6821   7.6821   7.6821

 M, (1/n)          29.119   29.119   29.119
 MW, MOL WT        14.073   14.073   14.073
 Cp, KJ/(KG)(K)    2.5733   2.4984   2.1309
 GAMMAs            1.1248   1.1290   1.1547
 SON VEL,M/SEC      532.4    517.2    449.0
 MACH NUMBER        0.000    1.000    2.522

 PERFORMANCE PARAMETERS

 Ae/At                      1.0000   4.0000
 CSTAR, M/SEC                791.8    791.8
 CF                         0.6532   1.4302
 Ivac, M/SEC                 975.4   1286.6
 Isp, M/SEC                  517.2   1132.5

 MASS FRACTIONS

 CH4             0.30295   *CO             0.00397   *CO2            0.01349
 C2H6            0.00011   *H2             0.01056   H2O             0.08086
 NH3             0.00114   *N2             0.14594   C(gr)           0.44097

  * THERMODYNAMIC PROPERTIES FITTED TO 20000.K

 NOTE. WEIGHT FRACTION OF FUEL IN TOTAL FUELS AND OF OXIDANT IN TOTAL OXIDANTS

           THEORETICAL ROCKET PERFORMANCE ASSUMING FROZEN COMPOSITION

 Pin =   881.8 PSIA
 CASE = _______________

             REACTANT                    WT FRACTION      ENERGY      TEMP
                                          (SEE NOTE)     KJ/KG-MOL      K  
 FUEL        paraffin                     1.0000000  -1860600.000    298.150
 OXIDANT     N2O                          1.0000000         0.000      0.000

 O/F=    0.30000  %FUEL= 76.923077  R,EQ.RATIO=30.461756  PHI,EQ.RATIO=30.461756

                 CHAMBER   THROAT     EXIT
 Pinf/P            1.0000   1.7284   20.542
 P, BAR            60.795   35.175   2.9595
 T, K              883.11   830.37   611.91
 RHO, KG/CU M    2.4120 1 1.4841 1 1.6945 0
 H, KJ/KG        -1428.71 -1562.49 -2070.09
 U, KJ/KG        -1680.76 -1799.49 -2244.74
 G, KJ/KG        -8208.60 -7937.50 -6767.90
 S, KJ/(KG)(K)     7.6773   7.6773   7.6773

 M, (1/n)          29.131   29.131   29.131
 MW, MOL WT        14.079   14.079   14.079
 Cp, KJ/(KG)(K)    2.5738   2.4989   2.1316
 GAMMAs            1.1247   1.1289   1.1546
 SON VEL,M/SEC      532.4    517.3    449.1
 MACH NUMBER        0.000    1.000    2.522

 PERFORMANCE PARAMETERS

 Ae/At                      1.0000   4.0000
 CSTAR, M/SEC                791.9    791.9
 CF                         0.6532   1.4302
 Ivac, M/SEC                 975.4   1286.8
 Isp, M/SEC                  517.3   1132.6

 MASS FRACTIONS

 CH4             0.30316   *CO             0.00396   *CO2            0.01350
 C2H6            0.00011   *H2             0.01051   H2O             0.08086
 NH3             0.00114   *N2             0.14594   C(gr)           0.44082

  * THERMODYNAMIC PROPERTIES FITTED TO 20000.K

 NOTE. WEIGHT FRACTION OF FUEL IN TOTAL FUELS AND OF OXIDANT IN TOTAL OXIDANTS

           THEORETICAL ROCKET PERFORMANCE ASSUMING FROZEN COMPOSITION

 Pin =   896.5 PSIA
 CASE = _______________

             REACTANT                    WT FRACTION      ENERGY      TEMP
                                          (SEE NOTE)     KJ/KG-MOL      K  
 FUEL        paraffin                     1.0000000  -1860600.000    298.150
 OXIDANT     N2O                          1.0000000         0.000      0.000

 O/F=    0.30000  %FUEL= 76.923077  R,EQ.RATIO=30.461756  PHI,EQ.RATIO=30.461756

                 CHAMBER   THROAT     EXIT
 Pinf/P            1.0000   1.7283   20.538
 P, BAR            61.808   35.762   3.0095
 T, K              883.56   830.83   612.38
 RHO, KG/CU M    2.4519 1 1.5087 1 1.7225 0
 H, KJ/KG        -1428.71 -1562.50 -2070.20
 U, KJ/KG        -1680.79 -1799.54 -2244.92
 G, KJ/KG        -8207.93 -7937.14 -6768.74
 S, KJ/(KG)(K)     7.6726   7.6726   7.6726

 M, (1/n)          29.142   29.142   29.142
 MW, MOL WT        14.084   14.084   14.084
 Cp, KJ/(KG)(K)    2.5743   2.4994   2.1322
 GAMMAs            1.1246   1.1289   1.1545
 SON VEL,M/SEC      532.5    517.3    449.1
 MACH NUMBER        0.000    1.000    2.522

 PERFORMANCE PARAMETERS

 Ae/At                      1.0000   4.0000
 CSTAR, M/SEC                792.0    792.0
 CF                         0.6531   1.4302
 Ivac, M/SEC                 975.5   1286.9
 Isp, M/SEC                  517.3   1132.7

 MASS FRACTIONS

 CH4             0.30336   *CO             0.00395   *CO2            0.01350
 C2H6            0.00012   *H2             0.01046   H2O             0.08086
 NH3             0.00115   *N2             0.14593   C(gr)           0.44067

  * THERMODYNAMIC PROPERTIES FITTED TO 20000.K

 NOTE. WEIGHT FRACTION OF FUEL IN TOTAL FUELS AND OF OXIDANT IN TOTAL OXIDANTS

           THEORETICAL ROCKET PERFORMANCE ASSUMING FROZEN COMPOSITION

 Pin =   911.2 PSIA
 CASE = _______________

             REACTANT                    WT FRACTION      ENERGY      TEMP
                                          (SEE NOTE)     KJ/KG-MOL      K  
 FUEL        paraffin                     1.0000000  -1860600.000    298.150
 OXIDANT     N2O                          1.0000000         0.000      0.000

 O/F=    0.30000  %FUEL= 76.923077  R,EQ.RATIO=30.461756  PHI,EQ.RATIO=30.461756

                 CHAMBER   THROAT     EXIT
 Pinf/P            1.0000   1.7283   20.534
 P, BAR            62.822   36.349   3.0594
 T, K              884.01   831.29   612.84
 RHO, KG/CU M    2.4918 1 1.5332 1 1.7504 0
 H, KJ/KG        -1428.71 -1562.51 -2070.31
 U, KJ/KG        -1680.83 -1799.59 -2245.09
 G, KJ/KG        -8207.26 -7936.77 -6769.55
 S, KJ/(KG)(K)     7.6679   7.6679   7.6679

 M, (1/n)          29.154   29.154   29.154
 MW, MOL WT        14.089   14.089   14.089
 Cp, KJ/(KG)(K)    2.5748   2.4999   2.1328
 GAMMAs            1.1246   1.1288   1.1544
 SON VEL,M/SEC      532.5    517.3    449.2
 MACH NUMBER        0.000    1.000    2.522

 PERFORMANCE PARAMETERS

 Ae/At                      1.0000   4.0000
 CSTAR, M/SEC                792.1    792.1
 CF                         0.6531   1.4302
 Ivac, M/SEC                 975.6   1287.1
 Isp, M/SEC                  517.3   1132.8

 MASS FRACTIONS

 CH4             0.30356   *CO             0.00394   *CO2            0.01350
 C2H6            0.00012   *H2             0.01040   H2O             0.08087
 NH3             0.00116   *N2             0.14593   C(gr)           0.44052

  * THERMODYNAMIC PROPERTIES FITTED TO 20000.K

 NOTE. WEIGHT FRACTION OF FUEL IN TOTAL FUELS AND OF OXIDANT IN TOTAL OXIDANTS

           THEORETICAL ROCKET PERFORMANCE ASSUMING FROZEN COMPOSITION

 Pin =   925.8 PSIA
 CASE = _______________

             REACTANT                    WT FRACTION      ENERGY      TEMP
                                          (SEE NOTE)     KJ/KG-MOL      K  
 FUEL        paraffin                     1.0000000  -1860600.000    298.150
 OXIDANT     N2O                          1.0000000         0.000      0.000

 O/F=    0.30000  %FUEL= 76.923077  R,EQ.RATIO=30.461756  PHI,EQ.RATIO=30.461756

                 CHAMBER   THROAT     EXIT
 Pinf/P            1.0000   1.7282   20.530
 P, BAR            63.835   36.937   3.1094
 T, K              884.45   831.73   613.30
 RHO, KG/CU M    2.5316 1 1.5577 1 1.7784 0
 H, KJ/KG        -1428.71 -1562.52 -2070.41
 U, KJ/KG        -1680.86 -1799.64 -2245.26
 G, KJ/KG        -8206.60 -7936.39 -6770.34
 S, KJ/(KG)(K)     7.6634   7.6634   7.6634

 M, (1/n)          29.165   29.165   29.165
 MW, MOL WT        14.094   14.094   14.094
 Cp, KJ/(KG)(K)    2.5752   2.5004   2.1334
 GAMMAs            1.1245   1.1287   1.1542
 SON VEL,M/SEC      532.5    517.3    449.2
 MACH NUMBER        0.000    1.000    2.522

 PERFORMANCE PARAMETERS

 Ae/At                      1.0000   4.0000
 CSTAR, M/SEC                792.1    792.1
 CF                         0.6531   1.4302
 Ivac, M/SEC                 975.7   1287.2
 Isp, M/SEC                  517.3   1132.9

 MASS FRACTIONS

 CH4             0.30375   *CO             0.00393   *CO2            0.01351
 C2H6            0.00012   *H2             0.01035   H2O             0.08087
 NH3             0.00116   *N2             0.14592   C(gr)           0.44038

  * THERMODYNAMIC PROPERTIES FITTED TO 20000.K

 NOTE. WEIGHT FRACTION OF FUEL IN TOTAL FUELS AND OF OXIDANT IN TOTAL OXIDANTS

           THEORETICAL ROCKET PERFORMANCE ASSUMING FROZEN COMPOSITION

 Pin =   940.5 PSIA
 CASE = _______________

             REACTANT                    WT FRACTION      ENERGY      TEMP
                                          (SEE NOTE)     KJ/KG-MOL      K  
 FUEL        paraffin                     1.0000000  -1860600.000    298.150
 OXIDANT     N2O                          1.0000000         0.000      0.000

 O/F=    0.30000  %FUEL= 76.923077  R,EQ.RATIO=30.461756  PHI,EQ.RATIO=30.461756

                 CHAMBER   THROAT     EXIT
 Pinf/P            1.0000   1.7282   20.526
 P, BAR            64.848   37.524   3.1593
 T, K              884.88   832.17   613.74
 RHO, KG/CU M    2.5715 1 1.5823 1 1.8063 0
 H, KJ/KG        -1428.71 -1562.53 -2070.51
 U, KJ/KG        -1680.89 -1799.69 -2245.42
 G, KJ/KG        -8205.93 -7936.01 -6771.10
 S, KJ/(KG)(K)     7.6589   7.6589   7.6589

 M, (1/n)          29.175   29.175   29.175
 MW, MOL WT        14.099   14.099   14.099
 Cp, KJ/(KG)(K)    2.5757   2.5008   2.1340
 GAMMAs            1.1244   1.1286   1.1541
 SON VEL,M/SEC      532.5    517.4    449.3
 MACH NUMBER        0.000    1.000    2.522

 PERFORMANCE PARAMETERS

 Ae/At                      1.0000   4.0000
 CSTAR, M/SEC                792.2    792.2
 CF                         0.6531   1.4302
 Ivac, M/SEC                 975.8   1287.3
 Isp, M/SEC                  517.4   1133.0

 MASS FRACTIONS

 CH4             0.30395   *CO             0.00393   *CO2            0.01351
 C2H6            0.00012   *H2             0.01030   H2O             0.08087
 NH3             0.00117   *N2             0.14592   C(gr)           0.44023

  * THERMODYNAMIC PROPERTIES FITTED TO 20000.K

 NOTE. WEIGHT FRACTION OF FUEL IN TOTAL FUELS AND OF OXIDANT IN TOTAL OXIDANTS

           THEORETICAL ROCKET PERFORMANCE ASSUMING FROZEN COMPOSITION

 Pin =   955.2 PSIA
 CASE = _______________

             REACTANT                    WT FRACTION      ENERGY      TEMP
                                          (SEE NOTE)     KJ/KG-MOL      K  
 FUEL        paraffin                     1.0000000  -1860600.000    298.150
 OXIDANT     N2O                          1.0000000         0.000      0.000

 O/F=    0.30000  %FUEL= 76.923077  R,EQ.RATIO=30.461756  PHI,EQ.RATIO=30.461756

                 CHAMBER   THROAT     EXIT
 Pinf/P            1.0000   1.7281   20.522
 P, BAR            65.861   38.112   3.2093
 T, K              885.31   832.60   614.18
 RHO, KG/CU M    2.6114 1 1.6068 1 1.8342 0
 H, KJ/KG        -1428.71 -1562.55 -2070.62
 U, KJ/KG        -1680.92 -1799.74 -2245.58
 G, KJ/KG        -8205.26 -7935.62 -6771.84
 S, KJ/(KG)(K)     7.6545   7.6545   7.6545

 M, (1/n)          29.186   29.186   29.186
 MW, MOL WT        14.103   14.103   14.103
 Cp, KJ/(KG)(K)    2.5761   2.5013   2.1345
 GAMMAs            1.1243   1.1285   1.1540
 SON VEL,M/SEC      532.5    517.4    449.4
 MACH NUMBER        0.000    1.000    2.522

 PERFORMANCE PARAMETERS

 Ae/At                      1.0000   4.0000
 CSTAR, M/SEC                792.3    792.3
 CF                         0.6530   1.4302
 Ivac, M/SEC                 975.8   1287.5
 Isp, M/SEC                  517.4   1133.1

 MASS FRACTIONS

 CH4             0.30413   *CO             0.00392   *CO2            0.01351
 C2H6            0.00012   *H2             0.01026   H2O             0.08088
 NH3             0.00118   *N2             0.14591   C(gr)           0.44009

  * THERMODYNAMIC PROPERTIES FITTED TO 20000.K

 NOTE. WEIGHT FRACTION OF FUEL IN TOTAL FUELS AND OF OXIDANT IN TOTAL OXIDANTS

           THEORETICAL ROCKET PERFORMANCE ASSUMING FROZEN COMPOSITION

 Pin =   969.9 PSIA
 CASE = _______________

             REACTANT                    WT FRACTION      ENERGY      TEMP
                                          (SEE NOTE)     KJ/KG-MOL      K  
 FUEL        paraffin                     1.0000000  -1860600.000    298.150
 OXIDANT     N2O                          1.0000000         0.000      0.000

 O/F=    0.30000  %FUEL= 76.923077  R,EQ.RATIO=30.461756  PHI,EQ.RATIO=30.461756

                 CHAMBER   THROAT     EXIT
 Pinf/P            1.0000   1.7281   20.518
 P, BAR            66.874   38.699   3.2593
 T, K              885.72   833.02   614.61
 RHO, KG/CU M    2.6513 1 1.6313 1 1.8621 0
 H, KJ/KG        -1428.71 -1562.56 -2070.71
 U, KJ/KG        -1680.94 -1799.78 -2245.74
 G, KJ/KG        -8204.59 -7935.23 -6772.56
 S, KJ/(KG)(K)     7.6501   7.6501   7.6501

 M, (1/n)          29.196   29.196   29.196
 MW, MOL WT        14.108   14.108   14.108
 Cp, KJ/(KG)(K)    2.5765   2.5017   2.1351
 GAMMAs            1.1243   1.1285   1.1539
 SON VEL,M/SEC      532.5    517.4    449.4
 MACH NUMBER        0.000    1.000    2.521

 PERFORMANCE PARAMETERS

 Ae/At                     1.00000   4.0000
 CSTAR, M/SEC                792.3    792.3
 CF                         0.6530   1.4301
 Ivac, M/SEC                 975.9   1287.6
 Isp, M/SEC                  517.4   1133.1

 MASS FRACTIONS

 CH4             0.30432   *CO             0.00391   *CO2            0.01352
 C2H6            0.00012   *H2             0.01021   H2O             0.08088
 NH3             0.00118   *N2             0.14591   C(gr)           0.43996

  * THERMODYNAMIC PROPERTIES FITTED TO 20000.K

 NOTE. WEIGHT FRACTION OF FUEL IN TOTAL FUELS AND OF OXIDANT IN TOTAL OXIDANTS

           THEORETICAL ROCKET PERFORMANCE ASSUMING FROZEN COMPOSITION

 Pin =   984.6 PSIA
 CASE = _______________

             REACTANT                    WT FRACTION      ENERGY      TEMP
                                          (SEE NOTE)     KJ/KG-MOL      K  
 FUEL        paraffin                     1.0000000  -1860600.000    298.150
 OXIDANT     N2O                          1.0000000         0.000      0.000

 O/F=    0.30000  %FUEL= 76.923077  R,EQ.RATIO=30.461756  PHI,EQ.RATIO=30.461756

                 CHAMBER   THROAT     EXIT
 Pinf/P            1.0000   1.7280   20.514
 P, BAR            67.888   39.286   3.3093
 T, K              886.13   833.43   615.03
 RHO, KG/CU M    2.6911 1 1.6558 1 1.8901 0
 H, KJ/KG        -1428.71 -1562.57 -2070.81
 U, KJ/KG        -1680.97 -1799.83 -2245.90
 G, KJ/KG        -8203.92 -7934.84 -6773.26
 S, KJ/(KG)(K)     7.6458   7.6458   7.6458

 M, (1/n)          29.206   29.206   29.206
 MW, MOL WT        14.113   14.113   14.113
 Cp, KJ/(KG)(K)    2.5770   2.5022   2.1356
 GAMMAs            1.1242   1.1284   1.1538
 SON VEL,M/SEC      532.5    517.4    449.5
 MACH NUMBER        0.000    1.000    2.521

 PERFORMANCE PARAMETERS

 Ae/At                      1.0000   4.0000
 CSTAR, M/SEC                792.4    792.4
 CF                         0.6530   1.4301
 Ivac, M/SEC                 976.0   1287.7
 Isp, M/SEC                  517.4   1133.2

 MASS FRACTIONS

 CH4             0.30450   *CO             0.00390   *CO2            0.01352
 C2H6            0.00012   *H2             0.01016   H2O             0.08088
 NH3             0.00119   *N2             0.14590   C(gr)           0.43982

  * THERMODYNAMIC PROPERTIES FITTED TO 20000.K

 NOTE. WEIGHT FRACTION OF FUEL IN TOTAL FUELS AND OF OXIDANT IN TOTAL OXIDANTS

           THEORETICAL ROCKET PERFORMANCE ASSUMING FROZEN COMPOSITION

 Pin =   999.3 PSIA
 CASE = _______________

             REACTANT                    WT FRACTION      ENERGY      TEMP
                                          (SEE NOTE)     KJ/KG-MOL      K  
 FUEL        paraffin                     1.0000000  -1860600.000    298.150
 OXIDANT     N2O                          1.0000000         0.000      0.000

 O/F=    0.30000  %FUEL= 76.923077  R,EQ.RATIO=30.461756  PHI,EQ.RATIO=30.461756

                 CHAMBER   THROAT     EXIT
 Pinf/P            1.0000   1.7280   20.511
 P, BAR            68.901   39.874   3.3593
 T, K              886.53   833.84   615.45
 RHO, KG/CU M    2.7310 1 1.6803 1 1.9180 0
 H, KJ/KG        -1428.71 -1562.58 -2070.91
 U, KJ/KG        -1681.00 -1799.87 -2246.05
 G, KJ/KG        -8203.26 -7934.44 -6773.94
 S, KJ/(KG)(K)     7.6416   7.6416   7.6416

 M, (1/n)          29.217   29.217   29.217
 MW, MOL WT        14.117   14.117   14.117
 Cp, KJ/(KG)(K)    2.5774   2.5026   2.1362
 GAMMAs            1.1241   1.1283   1.1537
 SON VEL,M/SEC      532.5    517.4    449.5
 MACH NUMBER        0.000    1.000    2.521

 PERFORMANCE PARAMETERS

 Ae/At                      1.0000   4.0000
 CSTAR, M/SEC                792.5    792.5
 CF                         0.6530   1.4301
 Ivac, M/SEC                 976.0   1287.9
 Isp, M/SEC                  517.4   1133.3

 MASS FRACTIONS

 CH4             0.30468   *CO             0.00389   *CO2            0.01352
 C2H6            0.00012   *H2             0.01011   H2O             0.08089
 NH3             0.00119   *N2             0.14590   C(gr)           0.43969

  * THERMODYNAMIC PROPERTIES FITTED TO 20000.K

 NOTE. WEIGHT FRACTION OF FUEL IN TOTAL FUELS AND OF OXIDANT IN TOTAL OXIDANTS

           THEORETICAL ROCKET PERFORMANCE ASSUMING FROZEN COMPOSITION

 Pin =  1014.0 PSIA
 CASE = _______________

             REACTANT                    WT FRACTION      ENERGY      TEMP
                                          (SEE NOTE)     KJ/KG-MOL      K  
 FUEL        paraffin                     1.0000000  -1860600.000    298.150
 OXIDANT     N2O                          1.0000000         0.000      0.000

 O/F=    0.30000  %FUEL= 76.923077  R,EQ.RATIO=30.461756  PHI,EQ.RATIO=30.461756

                 CHAMBER   THROAT     EXIT
 Pinf/P            1.0000   1.7279   20.507
 P, BAR            69.914   40.461   3.4093
 T, K              886.93   834.24   615.86
 RHO, KG/CU M    2.7709 1 1.7049 1 1.9459 0
 H, KJ/KG        -1428.71 -1562.59 -2071.00
 U, KJ/KG        -1681.03 -1799.92 -2246.20
 G, KJ/KG        -8202.59 -7934.04 -6774.60
 S, KJ/(KG)(K)     7.6375   7.6375   7.6375

 M, (1/n)          29.226   29.226   29.226
 MW, MOL WT        14.122   14.122   14.122
 Cp, KJ/(KG)(K)    2.5778   2.5031   2.1367
 GAMMAs            1.1241   1.1282   1.1536
 SON VEL,M/SEC      532.6    517.5    449.6
 MACH NUMBER        0.000    1.000    2.521

 PERFORMANCE PARAMETERS

 Ae/At                      1.0000   4.0000
 CSTAR, M/SEC                792.5    792.5
 CF                         0.6529   1.4301
 Ivac, M/SEC                 976.1   1288.0
 Isp, M/SEC                  517.5   1133.4

 MASS FRACTIONS

 CH4             0.30485   *CO             0.00388   *CO2            0.01352
 C2H6            0.00013   *H2             0.01007   H2O             0.08089
 NH3             0.00120   *N2             0.14589   C(gr)           0.43956

  * THERMODYNAMIC PROPERTIES FITTED TO 20000.K

 NOTE. WEIGHT FRACTION OF FUEL IN TOTAL FUELS AND OF OXIDANT IN TOTAL OXIDANTS

           THEORETICAL ROCKET PERFORMANCE ASSUMING FROZEN COMPOSITION

 Pin =  1028.7 PSIA
 CASE = _______________

             REACTANT                    WT FRACTION      ENERGY      TEMP
                                          (SEE NOTE)     KJ/KG-MOL      K  
 FUEL        paraffin                     1.0000000  -1860600.000    298.150
 OXIDANT     N2O                          1.0000000         0.000      0.000

 O/F=    0.30000  %FUEL= 76.923077  R,EQ.RATIO=30.461756  PHI,EQ.RATIO=30.461756

                 CHAMBER   THROAT     EXIT
 Pinf/P            1.0000   1.7279   20.504
 P, BAR            70.927   41.049   3.4593
 T, K              887.32   834.63   616.26
 RHO, KG/CU M    2.8107 1 1.7294 1 1.9738 0
 H, KJ/KG        -1428.71 -1562.60 -2071.09
 U, KJ/KG        -1681.05 -1799.96 -2246.35
 G, KJ/KG        -8201.92 -7933.63 -6775.24
 S, KJ/(KG)(K)     7.6334   7.6334   7.6334

 M, (1/n)          29.236   29.236   29.236
 MW, MOL WT        14.126   14.126   14.126
 Cp, KJ/(KG)(K)    2.5782   2.5035   2.1372
 GAMMAs            1.1240   1.1282   1.1535
 SON VEL,M/SEC      532.6    517.5    449.6
 MACH NUMBER        0.000    1.000    2.521

 PERFORMANCE PARAMETERS

 Ae/At                      1.0000   4.0000
 CSTAR, M/SEC                792.6    792.6
 CF                         0.6529   1.4301
 Ivac, M/SEC                 976.2   1288.1
 Isp, M/SEC                  517.5   1133.5

 MASS FRACTIONS

 CH4             0.30503   *CO             0.00387   *CO2            0.01353
 C2H6            0.00013   *H2             0.01002   H2O             0.08089
 NH3             0.00120   *N2             0.14589   C(gr)           0.43944

  * THERMODYNAMIC PROPERTIES FITTED TO 20000.K

 NOTE. WEIGHT FRACTION OF FUEL IN TOTAL FUELS AND OF OXIDANT IN TOTAL OXIDANTS

           THEORETICAL ROCKET PERFORMANCE ASSUMING FROZEN COMPOSITION

 Pin =  1043.4 PSIA
 CASE = _______________

             REACTANT                    WT FRACTION      ENERGY      TEMP
                                          (SEE NOTE)     KJ/KG-MOL      K  
 FUEL        paraffin                     1.0000000  -1860600.000    298.150
 OXIDANT     N2O                          1.0000000         0.000      0.000

 O/F=    0.30000  %FUEL= 76.923077  R,EQ.RATIO=30.461756  PHI,EQ.RATIO=30.461756

                 CHAMBER   THROAT     EXIT
 Pinf/P            1.0000   1.7278   20.500
 P, BAR            71.941   41.636   3.5093
 T, K              887.70   835.01   616.66
 RHO, KG/CU M    2.8506 1 1.7539 1 2.0017 0
 H, KJ/KG        -1428.71 -1562.61 -2071.18
 U, KJ/KG        -1681.08 -1800.00 -2246.49
 G, KJ/KG        -8201.26 -7933.23 -6775.86
 S, KJ/(KG)(K)     7.6293   7.6293   7.6293

 M, (1/n)          29.246   29.246   29.246
 MW, MOL WT        14.130   14.130   14.130
 Cp, KJ/(KG)(K)    2.5786   2.5039   2.1378
 GAMMAs            1.1239   1.1281   1.1534
 SON VEL,M/SEC      532.6    517.5    449.7
 MACH NUMBER        0.000    1.000    2.521

 PERFORMANCE PARAMETERS

 Ae/At                      1.0000   4.0000
 CSTAR, M/SEC                792.6    792.6
 CF                         0.6529   1.4301
 Ivac, M/SEC                 976.2   1288.2
 Isp, M/SEC                  517.5   1133.6

 MASS FRACTIONS

 CH4             0.30520   *CO             0.00387   *CO2            0.01353
 C2H6            0.00013   *H2             0.00998   H2O             0.08089
 NH3             0.00121   *N2             0.14588   C(gr)           0.43931

  * THERMODYNAMIC PROPERTIES FITTED TO 20000.K

 NOTE. WEIGHT FRACTION OF FUEL IN TOTAL FUELS AND OF OXIDANT IN TOTAL OXIDANTS

           THEORETICAL ROCKET PERFORMANCE ASSUMING FROZEN COMPOSITION

 Pin =  1058.1 PSIA
 CASE = _______________

             REACTANT                    WT FRACTION      ENERGY      TEMP
                                          (SEE NOTE)     KJ/KG-MOL      K  
 FUEL        paraffin                     1.0000000  -1860600.000    298.150
 OXIDANT     N2O                          1.0000000         0.000      0.000

 O/F=    0.30000  %FUEL= 76.923077  R,EQ.RATIO=30.461756  PHI,EQ.RATIO=30.461756

                 CHAMBER   THROAT     EXIT
 Pinf/P            1.0000   1.7278   20.497
 P, BAR            72.954   42.224   3.5593
 T, K              888.07   835.39   617.04
 RHO, KG/CU M    2.8905 1 1.7784 1 2.0296 0
 H, KJ/KG        -1428.71 -1562.62 -2071.27
 U, KJ/KG        -1681.10 -1800.04 -2246.64
 G, KJ/KG        -8200.59 -7932.81 -6776.46
 S, KJ/(KG)(K)     7.6254   7.6254   7.6254

 M, (1/n)          29.255   29.255   29.255
 MW, MOL WT        14.135   14.135   14.135
 Cp, KJ/(KG)(K)    2.5790   2.5043   2.1383
 GAMMAs            1.1239   1.1280   1.1533
 SON VEL,M/SEC      532.6    517.5    449.7
 MACH NUMBER        0.000    1.000    2.521

 PERFORMANCE PARAMETERS

 Ae/At                      1.0000   4.0000
 CSTAR, M/SEC                792.7    792.7
 CF                         0.6529   1.4301
 Ivac, M/SEC                 976.3   1288.3
 Isp, M/SEC                  517.5   1133.6

 MASS FRACTIONS

 CH4             0.30536   *CO             0.00386   *CO2            0.01353
 C2H6            0.00013   *H2             0.00994   H2O             0.08090
 NH3             0.00122   *N2             0.14588   C(gr)           0.43919

  * THERMODYNAMIC PROPERTIES FITTED TO 20000.K

 NOTE. WEIGHT FRACTION OF FUEL IN TOTAL FUELS AND OF OXIDANT IN TOTAL OXIDANTS

           THEORETICAL ROCKET PERFORMANCE ASSUMING FROZEN COMPOSITION

 Pin =   720.1 PSIA
 CASE = _______________

             REACTANT                    WT FRACTION      ENERGY      TEMP
                                          (SEE NOTE)     KJ/KG-MOL      K  
 FUEL        paraffin                     1.0000000  -1860600.000    298.150
 OXIDANT     N2O                          1.0000000         0.000      0.000

 O/F=    0.50000  %FUEL= 66.666667  R,EQ.RATIO=18.277054  PHI,EQ.RATIO=18.277054

                 CHAMBER   THROAT     EXIT
 Pinf/P            1.0000   1.7379   21.203
 P, BAR            49.649   28.569   2.3417
 T, K              984.96   919.49   655.19
 RHO, KG/CU M    1.6356 1 1.0082 1 1.1597 0
 H, KJ/KG        -1238.21 -1400.36 -2004.08
 U, KJ/KG        -1541.76 -1683.73 -2206.00
 G, KJ/KG        -9363.62 -8985.63 -7409.01
 S, KJ/(KG)(K)     8.2495   8.2495   8.2495

 M, (1/n)          26.979   26.979   26.979
 MW, MOL WT        14.117   14.117   14.117
 Cp, KJ/(KG)(K)    2.5099   2.4422   2.1081
 GAMMAs            1.1400   1.1444   1.1712
 SON VEL,M/SEC      588.3    569.5    486.3
 MACH NUMBER        0.000    1.000    2.545

 PERFORMANCE PARAMETERS

 Ae/At                      1.0000   4.0000
 CSTAR, M/SEC                864.8    864.8
 CF                         0.6585   1.4311
 Ivac, M/SEC                1067.1   1400.8
 Isp, M/SEC                  569.5   1237.6

 MASS FRACTIONS

 CH4             0.21253   *CO             0.02333   *CO2            0.03173
 C2H6            0.00009   *H2             0.01886   H2O             0.09545
 NH3             0.00116   *N2             0.21121   C(gr)           0.40564

  * THERMODYNAMIC PROPERTIES FITTED TO 20000.K

 NOTE. WEIGHT FRACTION OF FUEL IN TOTAL FUELS AND OF OXIDANT IN TOTAL OXIDANTS

           THEORETICAL ROCKET PERFORMANCE ASSUMING FROZEN COMPOSITION

 Pin =   734.8 PSIA
 CASE = _______________

             REACTANT                    WT FRACTION      ENERGY      TEMP
                                          (SEE NOTE)     KJ/KG-MOL      K  
 FUEL        paraffin                     1.0000000  -1860600.000    298.150
 OXIDANT     N2O                          1.0000000         0.000      0.000

 O/F=    0.50000  %FUEL= 66.666667  R,EQ.RATIO=18.277054  PHI,EQ.RATIO=18.277054

                 CHAMBER   THROAT     EXIT
 Pinf/P            1.0000   1.7378   21.195
 P, BAR            50.663   29.154   2.3903
 T, K              985.81   920.34   656.04
 RHO, KG/CU M    1.6686 1 1.0285 1 1.1830 0
 H, KJ/KG        -1238.21 -1400.39 -2004.31
 U, KJ/KG        -1541.83 -1683.84 -2206.36
 G, KJ/KG        -9364.50 -8987.01 -7412.19
 S, KJ/(KG)(K)     8.2432   8.2432   8.2432

 M, (1/n)          26.996   26.996   26.996
 MW, MOL WT        14.125   14.125   14.125
 Cp, KJ/(KG)(K)    2.5106   2.4429   2.1089
 GAMMAs            1.1398   1.1443   1.1710
 SON VEL,M/SEC      588.3    569.5    486.4
 MACH NUMBER        0.000    1.000    2.545

 PERFORMANCE PARAMETERS

 Ae/At                      1.0000   4.0000
 CSTAR, M/SEC                864.9    864.9
 CF                         0.6585   1.4311
 Ivac, M/SEC                1067.2   1401.1
 Isp, M/SEC                  569.5   1237.8

 MASS FRACTIONS

 CH4             0.21288   *CO             0.02329   *CO2            0.03174
 C2H6            0.00009   *H2             0.01877   H2O             0.09547
 NH3             0.00117   *N2             0.21120   C(gr)           0.40539

  * THERMODYNAMIC PROPERTIES FITTED TO 20000.K

 NOTE. WEIGHT FRACTION OF FUEL IN TOTAL FUELS AND OF OXIDANT IN TOTAL OXIDANTS

           THEORETICAL ROCKET PERFORMANCE ASSUMING FROZEN COMPOSITION

 Pin =   749.5 PSIA
 CASE = _______________

             REACTANT                    WT FRACTION      ENERGY      TEMP
                                          (SEE NOTE)     KJ/KG-MOL      K  
 FUEL        paraffin                     1.0000000  -1860600.000    298.150
 OXIDANT     N2O                          1.0000000         0.000      0.000

 O/F=    0.50000  %FUEL= 66.666667  R,EQ.RATIO=18.277054  PHI,EQ.RATIO=18.277054

                 CHAMBER   THROAT     EXIT
 Pinf/P            1.0000   1.7377   21.188
 P, BAR            51.676   29.738   2.4389
 T, K              986.65   921.18   656.87
 RHO, KG/CU M    1.7016 1 1.0488 1 1.2063 0
 H, KJ/KG        -1238.21 -1400.41 -2004.54
 U, KJ/KG        -1541.90 -1683.95 -2206.72
 G, KJ/KG        -9365.35 -8988.34 -7415.29
 S, KJ/(KG)(K)     8.2371   8.2371   8.2371

 M, (1/n)          27.013   27.013   27.013
 MW, MOL WT        14.134   14.134   14.134
 Cp, KJ/(KG)(K)    2.5112   2.4435   2.1097
 GAMMAs            1.1397   1.1441   1.1708
 SON VEL,M/SEC      588.3    569.6    486.5
 MACH NUMBER        0.000    1.000    2.545

 PERFORMANCE PARAMETERS

 Ae/At                     1.00000   4.0000
 CSTAR, M/SEC                865.1    865.1
 CF                         0.6584   1.4311
 Ivac, M/SEC                1067.4   1401.3
 Isp, M/SEC                  569.6   1238.0

 MASS FRACTIONS

 CH4             0.21323   *CO             0.02326   *CO2            0.03174
 C2H6            0.00009   *H2             0.01868   H2O             0.09549
 NH3             0.00118   *N2             0.21119   C(gr)           0.40514

  * THERMODYNAMIC PROPERTIES FITTED TO 20000.K

 NOTE. WEIGHT FRACTION OF FUEL IN TOTAL FUELS AND OF OXIDANT IN TOTAL OXIDANTS

           THEORETICAL ROCKET PERFORMANCE ASSUMING FROZEN COMPOSITION

 Pin =   764.2 PSIA
 CASE = _______________

             REACTANT                    WT FRACTION      ENERGY      TEMP
                                          (SEE NOTE)     KJ/KG-MOL      K  
 FUEL        paraffin                     1.0000000  -1860600.000    298.150
 OXIDANT     N2O                          1.0000000         0.000      0.000

 O/F=    0.50000  %FUEL= 66.666667  R,EQ.RATIO=18.277054  PHI,EQ.RATIO=18.277054

                 CHAMBER   THROAT     EXIT
 Pinf/P            1.0000   1.7376   21.181
 P, BAR            52.689   30.323   2.4876
 T, K              987.46   922.01   657.69
 RHO, KG/CU M    1.7346 1 1.0692 1 1.2296 0
 H, KJ/KG        -1238.21 -1400.44 -2004.76
 U, KJ/KG        -1541.96 -1684.05 -2207.07
 G, KJ/KG        -9366.17 -8989.63 -7418.32
 S, KJ/(KG)(K)     8.2312   8.2312   8.2312

 M, (1/n)          27.030   27.030   27.030
 MW, MOL WT        14.143   14.143   14.143
 Cp, KJ/(KG)(K)    2.5119   2.4442   2.1105
 GAMMAs            1.1396   1.1440   1.1706
 SON VEL,M/SEC      588.3    569.6    486.7
 MACH NUMBER        0.000    1.000    2.544

 PERFORMANCE PARAMETERS

 Ae/At                      1.0000   4.0000
 CSTAR, M/SEC                865.2    865.2
 CF                         0.6584   1.4311
 Ivac, M/SEC                1067.5   1401.6
 Isp, M/SEC                  569.6   1238.2

 MASS FRACTIONS

 CH4             0.21356   *CO             0.02323   *CO2            0.03174
 C2H6            0.00009   *H2             0.01859   H2O             0.09551
 NH3             0.00118   *N2             0.21119   C(gr)           0.40490

  * THERMODYNAMIC PROPERTIES FITTED TO 20000.K

 NOTE. WEIGHT FRACTION OF FUEL IN TOTAL FUELS AND OF OXIDANT IN TOTAL OXIDANTS

           THEORETICAL ROCKET PERFORMANCE ASSUMING FROZEN COMPOSITION

 Pin =   778.9 PSIA
 CASE = _______________

             REACTANT                    WT FRACTION      ENERGY      TEMP
                                          (SEE NOTE)     KJ/KG-MOL      K  
 FUEL        paraffin                     1.0000000  -1860600.000    298.150
 OXIDANT     N2O                          1.0000000         0.000      0.000

 O/F=    0.50000  %FUEL= 66.666667  R,EQ.RATIO=18.277054  PHI,EQ.RATIO=18.277054

                 CHAMBER   THROAT     EXIT
 Pinf/P            1.0000   1.7375   21.174
 P, BAR            53.702   30.908   2.5362
 T, K              988.26   922.81   658.49
 RHO, KG/CU M    1.7676 1 1.0895 1 1.2529 0
 H, KJ/KG        -1238.21 -1400.46 -2004.98
 U, KJ/KG        -1542.03 -1684.16 -2207.41
 G, KJ/KG        -9366.97 -8990.89 -7421.28
 S, KJ/(KG)(K)     8.2253   8.2253   8.2253

 M, (1/n)          27.046   27.046   27.046
 MW, MOL WT        14.151   14.151   14.151
 Cp, KJ/(KG)(K)    2.5125   2.4448   2.1112
 GAMMAs            1.1394   1.1438   1.1704
 SON VEL,M/SEC      588.4    569.6    486.8
 MACH NUMBER        0.000    1.000    2.544

 PERFORMANCE PARAMETERS

 Ae/At                      1.0000   4.0000
 CSTAR, M/SEC                865.3    865.3
 CF                         0.6583   1.4311
 Ivac, M/SEC                1067.7   1401.8
 Isp, M/SEC                  569.6   1238.4

 MASS FRACTIONS

 CH4             0.21389   *CO             0.02320   *CO2            0.03174
 C2H6            0.00009   *H2             0.01850   H2O             0.09553
 NH3             0.00119   *N2             0.21118   C(gr)           0.40467

  * THERMODYNAMIC PROPERTIES FITTED TO 20000.K

 NOTE. WEIGHT FRACTION OF FUEL IN TOTAL FUELS AND OF OXIDANT IN TOTAL OXIDANTS

           THEORETICAL ROCKET PERFORMANCE ASSUMING FROZEN COMPOSITION

 Pin =   793.6 PSIA
 CASE = _______________

             REACTANT                    WT FRACTION      ENERGY      TEMP
                                          (SEE NOTE)     KJ/KG-MOL      K  
 FUEL        paraffin                     1.0000000  -1860600.000    298.150
 OXIDANT     N2O                          1.0000000         0.000      0.000

 O/F=    0.50000  %FUEL= 66.666667  R,EQ.RATIO=18.277054  PHI,EQ.RATIO=18.277054

                 CHAMBER   THROAT     EXIT
 Pinf/P            1.0000   1.7374   21.167
 P, BAR            54.715   31.492   2.5849
 T, K              989.05   923.60   659.28
 RHO, KG/CU M    1.8006 1 1.1098 1 1.2761 0
 H, KJ/KG        -1238.21 -1400.48 -2005.19
 U, KJ/KG        -1542.09 -1684.25 -2207.75
 G, KJ/KG        -9367.73 -8992.11 -7424.17
 S, KJ/(KG)(K)     8.2196   8.2196   8.2196

 M, (1/n)          27.062   27.062   27.062
 MW, MOL WT        14.159   14.159   14.159
 Cp, KJ/(KG)(K)    2.5131   2.4454   2.1120
 GAMMAs            1.1393   1.1437   1.1702
 SON VEL,M/SEC      588.4    569.7    486.9
 MACH NUMBER        0.000    1.000    2.544

 PERFORMANCE PARAMETERS

 Ae/At                      1.0000   4.0000
 CSTAR, M/SEC                865.4    865.4
 CF                         0.6583   1.4311
 Ivac, M/SEC                1067.8   1402.1
 Isp, M/SEC                  569.7   1238.5

 MASS FRACTIONS

 CH4             0.21421   *CO             0.02317   *CO2            0.03174
 C2H6            0.00009   *H2             0.01842   H2O             0.09555
 NH3             0.00120   *N2             0.21117   C(gr)           0.40444

  * THERMODYNAMIC PROPERTIES FITTED TO 20000.K

 NOTE. WEIGHT FRACTION OF FUEL IN TOTAL FUELS AND OF OXIDANT IN TOTAL OXIDANTS

           THEORETICAL ROCKET PERFORMANCE ASSUMING FROZEN COMPOSITION

 Pin =   808.3 PSIA
 CASE = _______________

             REACTANT                    WT FRACTION      ENERGY      TEMP
                                          (SEE NOTE)     KJ/KG-MOL      K  
 FUEL        paraffin                     1.0000000  -1860600.000    298.150
 OXIDANT     N2O                          1.0000000         0.000      0.000

 O/F=    0.50000  %FUEL= 66.666667  R,EQ.RATIO=18.277054  PHI,EQ.RATIO=18.277054

                 CHAMBER   THROAT     EXIT
 Pinf/P            1.0000   1.7373   21.161
 P, BAR            55.729   32.077   2.6336
 T, K              989.81   924.38   660.05
 RHO, KG/CU M    1.8336 1 1.1301 1 1.2994 0
 H, KJ/KG        -1238.21 -1400.51 -2005.39
 U, KJ/KG        -1542.15 -1684.35 -2208.07
 G, KJ/KG        -9368.47 -8993.29 -7427.00
 S, KJ/(KG)(K)     8.2139   8.2139   8.2139

 M, (1/n)          27.077   27.077   27.077
 MW, MOL WT        14.167   14.167   14.167
 Cp, KJ/(KG)(K)    2.5137   2.4460   2.1127
 GAMMAs            1.1392   1.1436   1.1701
 SON VEL,M/SEC      588.4    569.7    487.0
 MACH NUMBER        0.000    1.000    2.544

 PERFORMANCE PARAMETERS

 Ae/At                      1.0000   4.0000
 CSTAR, M/SEC                865.6    865.6
 CF                         0.6582   1.4311
 Ivac, M/SEC                1067.9   1402.3
 Isp, M/SEC                  569.7   1238.7

 MASS FRACTIONS

 CH4             0.21453   *CO             0.02313   *CO2            0.03174
 C2H6            0.00010   *H2             0.01833   H2O             0.09557
 NH3             0.00121   *N2             0.21116   C(gr)           0.40421

  * THERMODYNAMIC PROPERTIES FITTED TO 20000.K

 NOTE. WEIGHT FRACTION OF FUEL IN TOTAL FUELS AND OF OXIDANT IN TOTAL OXIDANTS

           THEORETICAL ROCKET PERFORMANCE ASSUMING FROZEN COMPOSITION

 Pin =   823.0 PSIA
 CASE = _______________

             REACTANT                    WT FRACTION      ENERGY      TEMP
                                          (SEE NOTE)     KJ/KG-MOL      K  
 FUEL        paraffin                     1.0000000  -1860600.000    298.150
 OXIDANT     N2O                          1.0000000         0.000      0.000

 O/F=    0.50000  %FUEL= 66.666667  R,EQ.RATIO=18.277054  PHI,EQ.RATIO=18.277054

                 CHAMBER   THROAT     EXIT
 Pinf/P            1.0000   1.7373   21.154
 P, BAR            56.742   32.662   2.6823
 T, K              990.57   925.14   660.81
 RHO, KG/CU M    1.8665 1 1.1504 1 1.3227 0
 H, KJ/KG        -1238.21 -1400.53 -2005.60
 U, KJ/KG        -1542.21 -1684.45 -2208.39
 G, KJ/KG        -9369.18 -8994.45 -7429.76
 S, KJ/(KG)(K)     8.2084   8.2084   8.2084

 M, (1/n)          27.093   27.093   27.093
 MW, MOL WT        14.175   14.175   14.175
 Cp, KJ/(KG)(K)    2.5142   2.4467   2.1134
 GAMMAs            1.1390   1.1434   1.1699
 SON VEL,M/SEC      588.4    569.8    487.1
 MACH NUMBER        0.000    1.000    2.543

 PERFORMANCE PARAMETERS

 Ae/At                      1.0000   4.0000
 CSTAR, M/SEC                865.7    865.7
 CF                         0.6582   1.4311
 Ivac, M/SEC                1068.1   1402.6
 Isp, M/SEC                  569.8   1238.9

 MASS FRACTIONS

 CH4             0.21484   *CO             0.02310   *CO2            0.03175
 C2H6            0.00010   *H2             0.01825   H2O             0.09559
 NH3             0.00122   *N2             0.21116   C(gr)           0.40400

  * THERMODYNAMIC PROPERTIES FITTED TO 20000.K

 NOTE. WEIGHT FRACTION OF FUEL IN TOTAL FUELS AND OF OXIDANT IN TOTAL OXIDANTS

           THEORETICAL ROCKET PERFORMANCE ASSUMING FROZEN COMPOSITION

 Pin =   837.7 PSIA
 CASE = _______________

             REACTANT                    WT FRACTION      ENERGY      TEMP
                                          (SEE NOTE)     KJ/KG-MOL      K  
 FUEL        paraffin                     1.0000000  -1860600.000    298.150
 OXIDANT     N2O                          1.0000000         0.000      0.000

 O/F=    0.50000  %FUEL= 66.666667  R,EQ.RATIO=18.277054  PHI,EQ.RATIO=18.277054

                 CHAMBER   THROAT     EXIT
 Pinf/P            1.0000   1.7372   21.148
 P, BAR            57.755   33.247   2.7311
 T, K              991.31   925.89   661.55
 RHO, KG/CU M    1.8995 1 1.1707 1 1.3459 0
 H, KJ/KG        -1238.21 -1400.55 -2005.79
 U, KJ/KG        -1542.27 -1684.54 -2208.70
 G, KJ/KG        -9369.87 -8995.57 -7432.47
 S, KJ/(KG)(K)     8.2030   8.2030   8.2030

 M, (1/n)          27.108   27.108   27.108
 MW, MOL WT        14.183   14.183   14.183
 Cp, KJ/(KG)(K)    2.5148   2.4472   2.1141
 GAMMAs            1.1389   1.1433   1.1697
 SON VEL,M/SEC      588.5    569.8    487.2
 MACH NUMBER        0.000    1.000    2.543

 PERFORMANCE PARAMETERS

 Ae/At                      1.0000   4.0000
 CSTAR, M/SEC                865.8    865.8
 CF                         0.6581   1.4311
 Ivac, M/SEC                1068.2   1402.8
 Isp, M/SEC                  569.8   1239.0

 MASS FRACTIONS

 CH4             0.21514   *CO             0.02307   *CO2            0.03175
 C2H6            0.00010   *H2             0.01817   H2O             0.09561
 NH3             0.00123   *N2             0.21115   C(gr)           0.40378

  * THERMODYNAMIC PROPERTIES FITTED TO 20000.K

 NOTE. WEIGHT FRACTION OF FUEL IN TOTAL FUELS AND OF OXIDANT IN TOTAL OXIDANTS

           THEORETICAL ROCKET PERFORMANCE ASSUMING FROZEN COMPOSITION

 Pin =   852.4 PSIA
 CASE = _______________

             REACTANT                    WT FRACTION      ENERGY      TEMP
                                          (SEE NOTE)     KJ/KG-MOL      K  
 FUEL        paraffin                     1.0000000  -1860600.000    298.150
 OXIDANT     N2O                          1.0000000         0.000      0.000

 O/F=    0.50000  %FUEL= 66.666667  R,EQ.RATIO=18.277054  PHI,EQ.RATIO=18.277054

                 CHAMBER   THROAT     EXIT
 Pinf/P            1.0000   1.7371   21.141
 P, BAR            58.768   33.831   2.7798
 T, K              992.03   926.62   662.28
 RHO, KG/CU M    1.9325 1 1.1910 1 1.3692 0
 H, KJ/KG        -1238.21 -1400.57 -2005.99
 U, KJ/KG        -1542.32 -1684.63 -2209.01
 G, KJ/KG        -9370.54 -8996.65 -7435.12
 S, KJ/(KG)(K)     8.1976   8.1976   8.1976

 M, (1/n)          27.123   27.123   27.123
 MW, MOL WT        14.190   14.190   14.190
 Cp, KJ/(KG)(K)    2.5154   2.4478   2.1148
 GAMMAs            1.1388   1.1432   1.1695
 SON VEL,M/SEC      588.5    569.8    487.3
 MACH NUMBER        0.000    1.000    2.543

 PERFORMANCE PARAMETERS

 Ae/At                      1.0000   4.0000
 CSTAR, M/SEC                865.9    865.9
 CF                         0.6581   1.4311
 Ivac, M/SEC                1068.3   1403.0
 Isp, M/SEC                  569.8   1239.2

 MASS FRACTIONS

 CH4             0.21544   *CO             0.02304   *CO2            0.03175
 C2H6            0.00010   *H2             0.01809   H2O             0.09563
 NH3             0.00123   *N2             0.21114   C(gr)           0.40357

  * THERMODYNAMIC PROPERTIES FITTED TO 20000.K

 NOTE. WEIGHT FRACTION OF FUEL IN TOTAL FUELS AND OF OXIDANT IN TOTAL OXIDANTS

           THEORETICAL ROCKET PERFORMANCE ASSUMING FROZEN COMPOSITION

 Pin =   867.1 PSIA
 CASE = _______________

             REACTANT                    WT FRACTION      ENERGY      TEMP
                                          (SEE NOTE)     KJ/KG-MOL      K  
 FUEL        paraffin                     1.0000000  -1860600.000    298.150
 OXIDANT     N2O                          1.0000000         0.000      0.000

 O/F=    0.50000  %FUEL= 66.666667  R,EQ.RATIO=18.277054  PHI,EQ.RATIO=18.277054

                 CHAMBER   THROAT     EXIT
 Pinf/P            1.0000   1.7370   21.135
 P, BAR            59.782   34.416   2.8285
 T, K              992.75   927.34   663.00
 RHO, KG/CU M    1.9654 1 1.2113 1 1.3925 0
 H, KJ/KG        -1238.21 -1400.59 -2006.18
 U, KJ/KG        -1542.38 -1684.72 -2209.31
 G, KJ/KG        -9371.18 -8997.71 -7437.71
 S, KJ/(KG)(K)     8.1924   8.1924   8.1924

 M, (1/n)          27.137   27.137   27.137
 MW, MOL WT        14.198   14.198   14.198
 Cp, KJ/(KG)(K)    2.5159   2.4484   2.1155
 GAMMAs            1.1387   1.1430   1.1694
 SON VEL,M/SEC      588.5    569.9    487.4
 MACH NUMBER        0.000    1.000    2.543

 PERFORMANCE PARAMETERS

 Ae/At                      1.0000   4.0000
 CSTAR, M/SEC                866.0    866.0
 CF                         0.6580   1.4310
 Ivac, M/SEC                1068.4   1403.2
 Isp, M/SEC                  569.9   1239.3

 MASS FRACTIONS

 CH4             0.21573   *CO             0.02301   *CO2            0.03175
 C2H6            0.00010   *H2             0.01802   H2O             0.09565
 NH3             0.00124   *N2             0.21114   C(gr)           0.40336

  * THERMODYNAMIC PROPERTIES FITTED TO 20000.K

 NOTE. WEIGHT FRACTION OF FUEL IN TOTAL FUELS AND OF OXIDANT IN TOTAL OXIDANTS

           THEORETICAL ROCKET PERFORMANCE ASSUMING FROZEN COMPOSITION

 Pin =   881.8 PSIA
 CASE = _______________

             REACTANT                    WT FRACTION      ENERGY      TEMP
                                          (SEE NOTE)     KJ/KG-MOL      K  
 FUEL        paraffin                     1.0000000  -1860600.000    298.150
 OXIDANT     N2O                          1.0000000         0.000      0.000

 O/F=    0.50000  %FUEL= 66.666667  R,EQ.RATIO=18.277054  PHI,EQ.RATIO=18.277054

                 CHAMBER   THROAT     EXIT
 Pinf/P            1.0000   1.7369   21.129
 P, BAR            60.795   35.001   2.8773
 T, K              993.45   928.04   663.70
 RHO, KG/CU M    1.9984 1 1.2316 1 1.4157 0
 H, KJ/KG        -1238.21 -1400.62 -2006.36
 U, KJ/KG        -1542.43 -1684.81 -2209.61
 G, KJ/KG        -9371.80 -8998.74 -7440.25
 S, KJ/(KG)(K)     8.1872   8.1872   8.1872

 M, (1/n)          27.152   27.152   27.152
 MW, MOL WT        14.205   14.205   14.205
 Cp, KJ/(KG)(K)    2.5165   2.4490   2.1162
 GAMMAs            1.1385   1.1429   1.1692
 SON VEL,M/SEC      588.5    569.9    487.5
 MACH NUMBER        0.000    1.000    2.543

 PERFORMANCE PARAMETERS

 Ae/At                      1.0000   4.0000
 CSTAR, M/SEC                866.1    866.1
 CF                         0.6580   1.4310
 Ivac, M/SEC                1068.6   1403.5
 Isp, M/SEC                  569.9   1239.5

 MASS FRACTIONS

 CH4             0.21602   *CO             0.02298   *CO2            0.03175
 C2H6            0.00010   *H2             0.01794   H2O             0.09566
 NH3             0.00125   *N2             0.21113   C(gr)           0.40316

  * THERMODYNAMIC PROPERTIES FITTED TO 20000.K

 NOTE. WEIGHT FRACTION OF FUEL IN TOTAL FUELS AND OF OXIDANT IN TOTAL OXIDANTS

           THEORETICAL ROCKET PERFORMANCE ASSUMING FROZEN COMPOSITION

 Pin =   896.5 PSIA
 CASE = _______________

             REACTANT                    WT FRACTION      ENERGY      TEMP
                                          (SEE NOTE)     KJ/KG-MOL      K  
 FUEL        paraffin                     1.0000000  -1860600.000    298.150
 OXIDANT     N2O                          1.0000000         0.000      0.000

 O/F=    0.50000  %FUEL= 66.666667  R,EQ.RATIO=18.277054  PHI,EQ.RATIO=18.277054

                 CHAMBER   THROAT     EXIT
 Pinf/P            1.0000   1.7369   21.123
 P, BAR            61.808   35.586   2.9261
 T, K              994.13   928.74   664.39
 RHO, KG/CU M    2.0313 1 1.2519 1 1.4389 0
 H, KJ/KG        -1238.21 -1400.63 -2006.55
 U, KJ/KG        -1542.49 -1684.89 -2209.89
 G, KJ/KG        -9372.41 -8999.75 -7442.74
 S, KJ/(KG)(K)     8.1822   8.1822   8.1822

 M, (1/n)          27.166   27.166   27.166
 MW, MOL WT        14.212   14.212   14.212
 Cp, KJ/(KG)(K)    2.5170   2.4495   2.1168
 GAMMAs            1.1384   1.1428   1.1690
 SON VEL,M/SEC      588.6    570.0    487.6
 MACH NUMBER        0.000    1.000    2.542

 PERFORMANCE PARAMETERS

 Ae/At                      1.0000   4.0000
 CSTAR, M/SEC                866.2    866.2
 CF                         0.6580   1.4310
 Ivac, M/SEC                1068.7   1403.7
 Isp, M/SEC                  569.9   1239.6

 MASS FRACTIONS

 CH4             0.21630   *CO             0.02295   *CO2            0.03176
 C2H6            0.00010   *H2             0.01787   H2O             0.09568
 NH3             0.00126   *N2             0.21113   C(gr)           0.40296

  * THERMODYNAMIC PROPERTIES FITTED TO 20000.K

 NOTE. WEIGHT FRACTION OF FUEL IN TOTAL FUELS AND OF OXIDANT IN TOTAL OXIDANTS

           THEORETICAL ROCKET PERFORMANCE ASSUMING FROZEN COMPOSITION

 Pin =   911.2 PSIA
 CASE = _______________

             REACTANT                    WT FRACTION      ENERGY      TEMP
                                          (SEE NOTE)     KJ/KG-MOL      K  
 FUEL        paraffin                     1.0000000  -1860600.000    298.150
 OXIDANT     N2O                          1.0000000         0.000      0.000

 O/F=    0.50000  %FUEL= 66.666667  R,EQ.RATIO=18.277054  PHI,EQ.RATIO=18.277054

                 CHAMBER   THROAT     EXIT
 Pinf/P            1.0000   1.7368   21.117
 P, BAR            62.822   36.171   2.9749
 T, K              994.81   929.42   665.07
 RHO, KG/CU M    2.0643 1 1.2722 1 1.4622 0
 H, KJ/KG        -1238.21 -1400.65 -2006.72
 U, KJ/KG        -1542.54 -1684.97 -2210.18
 G, KJ/KG        -9372.99 -9000.72 -7445.18
 S, KJ/(KG)(K)     8.1772   8.1772   8.1772

 M, (1/n)          27.179   27.179   27.179
 MW, MOL WT        14.219   14.219   14.219
 Cp, KJ/(KG)(K)    2.5175   2.4501   2.1175
 GAMMAs            1.1383   1.1427   1.1689
 SON VEL,M/SEC      588.6    570.0    487.7
 MACH NUMBER        0.000    1.000    2.542

 PERFORMANCE PARAMETERS

 Ae/At                      1.0000   4.0000
 CSTAR, M/SEC                866.4    866.4
 CF                         0.6579   1.4310
 Ivac, M/SEC                1068.8   1403.9
 Isp, M/SEC                  570.0   1239.8

 MASS FRACTIONS

 CH4             0.21657   *CO             0.02292   *CO2            0.03176
 C2H6            0.00010   *H2             0.01779   H2O             0.09570
 NH3             0.00127   *N2             0.21112   C(gr)           0.40277

  * THERMODYNAMIC PROPERTIES FITTED TO 20000.K

 NOTE. WEIGHT FRACTION OF FUEL IN TOTAL FUELS AND OF OXIDANT IN TOTAL OXIDANTS

           THEORETICAL ROCKET PERFORMANCE ASSUMING FROZEN COMPOSITION

 Pin =   925.8 PSIA
 CASE = _______________

             REACTANT                    WT FRACTION      ENERGY      TEMP
                                          (SEE NOTE)     KJ/KG-MOL      K  
 FUEL        paraffin                     1.0000000  -1860600.000    298.150
 OXIDANT     N2O                          1.0000000         0.000      0.000

 O/F=    0.50000  %FUEL= 66.666667  R,EQ.RATIO=18.277054  PHI,EQ.RATIO=18.277054

                 CHAMBER   THROAT     EXIT
 Pinf/P            1.0000   1.7367   21.112
 P, BAR            63.835   36.756   3.0237
 T, K              995.47   930.09   665.74
 RHO, KG/CU M    2.0972 1 1.2925 1 1.4854 0
 H, KJ/KG        -1238.21 -1400.67 -2006.90
 U, KJ/KG        -1542.59 -1685.06 -2210.45
 G, KJ/KG        -9373.55 -9001.68 -7447.57
 S, KJ/(KG)(K)     8.1723   8.1723   8.1723

 M, (1/n)          27.193   27.193   27.193
 MW, MOL WT        14.226   14.226   14.226
 Cp, KJ/(KG)(K)    2.5180   2.4506   2.1181
 GAMMAs            1.1382   1.1426   1.1687
 SON VEL,M/SEC      588.6    570.0    487.7
 MACH NUMBER        0.000    1.000    2.542

 PERFORMANCE PARAMETERS

 Ae/At                      1.0000   4.0000
 CSTAR, M/SEC                866.5    866.5
 CF                         0.6579   1.4310
 Ivac, M/SEC                1068.9   1404.1
 Isp, M/SEC                  570.0   1239.9

 MASS FRACTIONS

 CH4             0.21684   *CO             0.02289   *CO2            0.03176
 C2H6            0.00011   *H2             0.01772   H2O             0.09572
 NH3             0.00127   *N2             0.21111   C(gr)           0.40257

  * THERMODYNAMIC PROPERTIES FITTED TO 20000.K

 NOTE. WEIGHT FRACTION OF FUEL IN TOTAL FUELS AND OF OXIDANT IN TOTAL OXIDANTS

           THEORETICAL ROCKET PERFORMANCE ASSUMING FROZEN COMPOSITION

 Pin =   940.5 PSIA
 CASE = _______________

             REACTANT                    WT FRACTION      ENERGY      TEMP
                                          (SEE NOTE)     KJ/KG-MOL      K  
 FUEL        paraffin                     1.0000000  -1860600.000    298.150
 OXIDANT     N2O                          1.0000000         0.000      0.000

 O/F=    0.50000  %FUEL= 66.666667  R,EQ.RATIO=18.277054  PHI,EQ.RATIO=18.277054

                 CHAMBER   THROAT     EXIT
 Pinf/P            1.0000   1.7367   21.106
 P, BAR            64.848   37.341   3.0725
 T, K              996.13   930.75   666.40
 RHO, KG/CU M    2.1302 1 1.3128 1 1.5087 0
 H, KJ/KG        -1238.21 -1400.69 -2007.07
 U, KJ/KG        -1542.64 -1685.14 -2210.73
 G, KJ/KG        -9374.09 -9002.60 -7449.91
 S, KJ/(KG)(K)     8.1675   8.1675   8.1675

 M, (1/n)          27.207   27.207   27.207
 MW, MOL WT        14.233   14.233   14.233
 Cp, KJ/(KG)(K)    2.5185   2.4511   2.1187
 GAMMAs            1.1381   1.1424   1.1686
 SON VEL,M/SEC      588.6    570.1    487.8
 MACH NUMBER        0.000    1.000    2.542

 PERFORMANCE PARAMETERS

 Ae/At                      1.0000   4.0000
 CSTAR, M/SEC                866.6    866.6
 CF                         0.6578   1.4310
 Ivac, M/SEC                1069.0   1404.3
 Isp, M/SEC                  570.0   1240.0

 MASS FRACTIONS

 CH4             0.21711   *CO             0.02286   *CO2            0.03176
 C2H6            0.00011   *H2             0.01765   H2O             0.09573
 NH3             0.00128   *N2             0.21111   C(gr)           0.40239

  * THERMODYNAMIC PROPERTIES FITTED TO 20000.K

 NOTE. WEIGHT FRACTION OF FUEL IN TOTAL FUELS AND OF OXIDANT IN TOTAL OXIDANTS

           THEORETICAL ROCKET PERFORMANCE ASSUMING FROZEN COMPOSITION

 Pin =   955.2 PSIA
 CASE = _______________

             REACTANT                    WT FRACTION      ENERGY      TEMP
                                          (SEE NOTE)     KJ/KG-MOL      K  
 FUEL        paraffin                     1.0000000  -1860600.000    298.150
 OXIDANT     N2O                          1.0000000         0.000      0.000

 O/F=    0.50000  %FUEL= 66.666667  R,EQ.RATIO=18.277054  PHI,EQ.RATIO=18.277054

                 CHAMBER   THROAT     EXIT
 Pinf/P            1.0000   1.7366   21.100
 P, BAR            65.861   37.926   3.1213
 T, K              996.77   931.40   667.05
 RHO, KG/CU M    2.1631 1 1.3330 1 1.5319 0
 H, KJ/KG        -1238.21 -1400.71 -2007.24
 U, KJ/KG        -1542.69 -1685.21 -2210.99
 G, KJ/KG        -9374.62 -9003.51 -7452.21
 S, KJ/(KG)(K)     8.1628   8.1628   8.1628

 M, (1/n)          27.220   27.220   27.220
 MW, MOL WT        14.240   14.240   14.240
 Cp, KJ/(KG)(K)    2.5190   2.4516   2.1193
 GAMMAs            1.1380   1.1423   1.1684
 SON VEL,M/SEC      588.6    570.1    487.9
 MACH NUMBER        0.000    1.000    2.542

 PERFORMANCE PARAMETERS

 Ae/At                      1.0000   4.0000
 CSTAR, M/SEC                866.7    866.7
 CF                         0.6578   1.4310
 Ivac, M/SEC                1069.1   1404.5
 Isp, M/SEC                  570.1   1240.2

 MASS FRACTIONS

 CH4             0.21737   *CO             0.02283   *CO2            0.03177
 C2H6            0.00011   *H2             0.01758   H2O             0.09575
 NH3             0.00129   *N2             0.21110   C(gr)           0.40220

  * THERMODYNAMIC PROPERTIES FITTED TO 20000.K

 NOTE. WEIGHT FRACTION OF FUEL IN TOTAL FUELS AND OF OXIDANT IN TOTAL OXIDANTS

           THEORETICAL ROCKET PERFORMANCE ASSUMING FROZEN COMPOSITION

 Pin =   969.9 PSIA
 CASE = _______________

             REACTANT                    WT FRACTION      ENERGY      TEMP
                                          (SEE NOTE)     KJ/KG-MOL      K  
 FUEL        paraffin                     1.0000000  -1860600.000    298.150
 OXIDANT     N2O                          1.0000000         0.000      0.000

 O/F=    0.50000  %FUEL= 66.666667  R,EQ.RATIO=18.277054  PHI,EQ.RATIO=18.277054

                 CHAMBER   THROAT     EXIT
 Pinf/P            1.0000   1.7365   21.095
 P, BAR            66.874   38.511   3.1702
 T, K              997.40   932.04   667.69
 RHO, KG/CU M    2.1961 1 1.3533 1 1.5551 0
 H, KJ/KG        -1238.21 -1400.73 -2007.40
 U, KJ/KG        -1542.73 -1685.29 -2211.26
 G, KJ/KG        -9375.13 -9004.39 -7454.47
 S, KJ/(KG)(K)     8.1581   8.1581   8.1581

 M, (1/n)          27.233   27.233   27.233
 MW, MOL WT        14.247   14.247   14.247
 Cp, KJ/(KG)(K)    2.5195   2.4522   2.1199
 GAMMAs            1.1379   1.1422   1.1683
 SON VEL,M/SEC      588.7    570.1    488.0
 MACH NUMBER        0.000    1.000    2.542

 PERFORMANCE PARAMETERS

 Ae/At                      1.0000   4.0000
 CSTAR, M/SEC                866.8    866.8
 CF                         0.6578   1.4310
 Ivac, M/SEC                1069.2   1404.7
 Isp, M/SEC                  570.1   1240.3

 MASS FRACTIONS

 CH4             0.21763   *CO             0.02280   *CO2            0.03177
 C2H6            0.00011   *H2             0.01751   H2O             0.09577
 NH3             0.00130   *N2             0.21109   C(gr)           0.40202

  * THERMODYNAMIC PROPERTIES FITTED TO 20000.K

 NOTE. WEIGHT FRACTION OF FUEL IN TOTAL FUELS AND OF OXIDANT IN TOTAL OXIDANTS

           THEORETICAL ROCKET PERFORMANCE ASSUMING FROZEN COMPOSITION

 Pin =   984.6 PSIA
 CASE = _______________

             REACTANT                    WT FRACTION      ENERGY      TEMP
                                          (SEE NOTE)     KJ/KG-MOL      K  
 FUEL        paraffin                     1.0000000  -1860600.000    298.150
 OXIDANT     N2O                          1.0000000         0.000      0.000

 O/F=    0.50000  %FUEL= 66.666667  R,EQ.RATIO=18.277054  PHI,EQ.RATIO=18.277054

                 CHAMBER   THROAT     EXIT
 Pinf/P            1.0000   1.7364   21.090
 P, BAR            67.888   39.096   3.2190
 T, K              998.02   932.67   668.32
 RHO, KG/CU M    2.2290 1 1.3736 1 1.5783 0
 H, KJ/KG        -1238.21 -1400.75 -2007.56
 U, KJ/KG        -1542.78 -1685.37 -2211.51
 G, KJ/KG        -9375.62 -9005.25 -7456.68
 S, KJ/(KG)(K)     8.1535   8.1535   8.1535

 M, (1/n)          27.246   27.246   27.246
 MW, MOL WT        14.253   14.253   14.253
 Cp, KJ/(KG)(K)    2.5200   2.4527   2.1205
 GAMMAs            1.1378   1.1421   1.1681
 SON VEL,M/SEC      588.7    570.1    488.1
 MACH NUMBER        0.000    1.000    2.541

 PERFORMANCE PARAMETERS

 Ae/At                      1.0000   4.0000
 CSTAR, M/SEC                866.9    866.9
 CF                         0.6577   1.4310
 Ivac, M/SEC                1069.4   1404.9
 Isp, M/SEC                  570.1   1240.4

 MASS FRACTIONS

 CH4             0.21788   *CO             0.02277   *CO2            0.03177
 C2H6            0.00011   *H2             0.01745   H2O             0.09578
 NH3             0.00130   *N2             0.21109   C(gr)           0.40184

  * THERMODYNAMIC PROPERTIES FITTED TO 20000.K

 NOTE. WEIGHT FRACTION OF FUEL IN TOTAL FUELS AND OF OXIDANT IN TOTAL OXIDANTS

           THEORETICAL ROCKET PERFORMANCE ASSUMING FROZEN COMPOSITION

 Pin =   999.3 PSIA
 CASE = _______________

             REACTANT                    WT FRACTION      ENERGY      TEMP
                                          (SEE NOTE)     KJ/KG-MOL      K  
 FUEL        paraffin                     1.0000000  -1860600.000    298.150
 OXIDANT     N2O                          1.0000000         0.000      0.000

 O/F=    0.50000  %FUEL= 66.666667  R,EQ.RATIO=18.277054  PHI,EQ.RATIO=18.277054

                 CHAMBER   THROAT     EXIT
 Pinf/P            1.0000   1.7364   21.084
 P, BAR            68.901   39.681   3.2679
 T, K              998.64   933.28   668.93
 RHO, KG/CU M    2.2619 1 1.3939 1 1.6016 0
 H, KJ/KG        -1238.21 -1400.76 -2007.72
 U, KJ/KG        -1542.83 -1685.44 -2211.77
 G, KJ/KG        -9376.10 -9006.08 -7458.85
 S, KJ/(KG)(K)     8.1490   8.1490   8.1490

 M, (1/n)          27.258   27.258   27.258
 MW, MOL WT        14.260   14.260   14.260
 Cp, KJ/(KG)(K)    2.5205   2.4532   2.1211
 GAMMAs            1.1377   1.1420   1.1680
 SON VEL,M/SEC      588.7    570.2    488.2
 MACH NUMBER        0.000    1.000    2.541

 PERFORMANCE PARAMETERS

 Ae/At                      1.0000   4.0000
 CSTAR, M/SEC                866.9    866.9
 CF                         0.6577   1.4310
 Ivac, M/SEC                1069.5   1405.0
 Isp, M/SEC                  570.2   1240.6

 MASS FRACTIONS

 CH4             0.21813   *CO             0.02274   *CO2            0.03178
 C2H6            0.00011   *H2             0.01738   H2O             0.09580
 NH3             0.00131   *N2             0.21108   C(gr)           0.40167

  * THERMODYNAMIC PROPERTIES FITTED TO 20000.K

[...]
 HCN             0.00001   *H2             0.01079   H2O             0.08924
 NH3             0.00002   *N2             0.53038   *OH             0.00002

  * THERMODYNAMIC PROPERTIES FITTED TO 20000.K

 NOTE. WEIGHT FRACTION OF FUEL IN TOTAL FUELS AND OF OXIDANT IN TOTAL OXIDANTS

           THEORETICAL ROCKET PERFORMANCE ASSUMING FROZEN COMPOSITION

 Pin =   911.2 PSIA
 CASE = _______________

             REACTANT                    WT FRACTION      ENERGY      TEMP
                                          (SEE NOTE)     KJ/KG-MOL      K  
 FUEL        paraffin                     1.0000000  -1860600.000    298.150
 OXIDANT     N2O                          1.0000000         0.000      0.000

 O/F=    5.00000  %FUEL= 16.666667  R,EQ.RATIO= 1.827705  PHI,EQ.RATIO= 1.827705

                 CHAMBER   THROAT     EXIT
 Pinf/P            1.0000   1.8175   27.605
 P, BAR            62.822   34.564   2.2757
 T, K             2177.30  1916.21  1034.64
 RHO, KG/CU M    8.3826 0 5.2404 0 6.3903-1
 H, KJ/KG         -309.55  -729.98 -2076.68
 U, KJ/KG        -1058.99 -1389.54 -2432.80
 G, KJ/KG        -21020.1 -18956.9 -11918.2
 S, KJ/(KG)(K)     9.5120   9.5120   9.5120

 M, (1/n)          24.156   24.156   24.156
 MW, MOL WT        24.156   24.156   24.156
 Cp, KJ/(KG)(K)    1.6232   1.5963   1.4366
 GAMMAs            1.2691   1.2749   1.3151
 SON VEL,M/SEC      975.3    917.0    684.3
 MACH NUMBER        0.000    1.000    2.747

 PERFORMANCE PARAMETERS

 Ae/At                      1.0000   4.0000
 CSTAR, M/SEC               1307.3   1307.3
 CF                         0.7014   1.4380
 Ivac, M/SEC                1636.3   2069.4
 Isp, M/SEC                  917.0   1880.0

 MASS FRACTIONS

 *CO             0.28881   *CO2            0.08071   *H              0.00001
 HCN             0.00001   *H2             0.01079   H2O             0.08924
 NH3             0.00002   *N2             0.53038   *OH             0.00002

  * THERMODYNAMIC PROPERTIES FITTED TO 20000.K

 NOTE. WEIGHT FRACTION OF FUEL IN TOTAL FUELS AND OF OXIDANT IN TOTAL OXIDANTS

           THEORETICAL ROCKET PERFORMANCE ASSUMING FROZEN COMPOSITION

 Pin =   925.8 PSIA
 CASE = _______________

             REACTANT                    WT FRACTION      ENERGY      TEMP
                                          (SEE NOTE)     KJ/KG-MOL      K  
 FUEL        paraffin                     1.0000000  -1860600.000    298.150
 OXIDANT     N2O                          1.0000000         0.000      0.000

 O/F=    5.00000  %FUEL= 16.666667  R,EQ.RATIO= 1.827705  PHI,EQ.RATIO= 1.827705

                 CHAMBER   THROAT     EXIT
 Pinf/P            1.0000   1.8175   27.605
 P, BAR            63.835   35.122   2.3125
 T, K             2177.31  1916.22  1034.65
 RHO, KG/CU M    8.5177 0 5.3249 0 6.4933-1
 H, KJ/KG         -309.55  -729.98 -2076.68
 U, KJ/KG        -1058.99 -1389.55 -2432.81
 G, KJ/KG        -21008.2 -18946.5 -11912.5
 S, KJ/(KG)(K)     9.5065   9.5065   9.5065

 M, (1/n)          24.156   24.156   24.156
 MW, MOL WT        24.156   24.156   24.156
 Cp, KJ/(KG)(K)    1.6232   1.5963   1.4366
 GAMMAs            1.2691   1.2749   1.3151
 SON VEL,M/SEC      975.3    917.0    684.4
 MACH NUMBER        0.000    1.000    2.747

 PERFORMANCE PARAMETERS

 Ae/At                      1.0000   4.0000
 CSTAR, M/SEC               1307.3   1307.3
 CF                         0.7014   1.4380
 Ivac, M/SEC                1636.3   2069.4
 Isp, M/SEC                  917.0   1880.0

 MASS FRACTIONS

 *CO             0.28881   *CO2            0.08071   *H              0.00001
 HCN             0.00001   *H2             0.01079   H2O             0.08924
 NH3             0.00002   *N2             0.53038   *OH             0.00002

  * THERMODYNAMIC PROPERTIES FITTED TO 20000.K

 NOTE. WEIGHT FRACTION OF FUEL IN TOTAL FUELS AND OF OXIDANT IN TOTAL OXIDANTS

           THEORETICAL ROCKET PERFORMANCE ASSUMING FROZEN COMPOSITION

 Pin =   940.5 PSIA
 CASE = _______________

             REACTANT                    WT FRACTION      ENERGY      TEMP
                                          (SEE NOTE)     KJ/KG-MOL      K  
 FUEL        paraffin                     1.0000000  -1860600.000    298.150
 OXIDANT     N2O                          1.0000000         0.000      0.000

 O/F=    5.00000  %FUEL= 16.666667  R,EQ.RATIO= 1.827705  PHI,EQ.RATIO= 1.827705

                 CHAMBER   THROAT     EXIT
 Pinf/P            1.0000   1.8175   27.605
 P, BAR            64.848   35.679   2.3492
 T, K             2177.33  1916.23  1034.66
 RHO, KG/CU M    8.6529 0 5.4095 0 6.5964-1
 H, KJ/KG         -309.55  -729.99 -2076.69
 U, KJ/KG        -1058.99 -1389.55 -2432.82
 G, KJ/KG        -20996.5 -18936.2 -11907.0
 S, KJ/(KG)(K)     9.5011   9.5011   9.5011

 M, (1/n)          24.156   24.156   24.156
 MW, MOL WT        24.156   24.156   24.156
 Cp, KJ/(KG)(K)    1.6232   1.5963   1.4366
 GAMMAs            1.2691   1.2749   1.3151
 SON VEL,M/SEC      975.3    917.0    684.4
 MACH NUMBER        0.000    1.000    2.747

 PERFORMANCE PARAMETERS

 Ae/At                      1.0000   4.0000
 CSTAR, M/SEC               1307.3   1307.3
 CF                         0.7014   1.4380
 Ivac, M/SEC                1636.3   2069.4
 Isp, M/SEC                  917.0   1880.0

 MASS FRACTIONS

 *CO             0.28881   *CO2            0.08071   *H              0.00001
 HCN             0.00001   *H2             0.01079   H2O             0.08924
 NH3             0.00002   *N2             0.53038   *OH             0.00002

  * THERMODYNAMIC PROPERTIES FITTED TO 20000.K

 NOTE. WEIGHT FRACTION OF FUEL IN TOTAL FUELS AND OF OXIDANT IN TOTAL OXIDANTS

           THEORETICAL ROCKET PERFORMANCE ASSUMING FROZEN COMPOSITION

 Pin =   955.2 PSIA
 CASE = _______________

             REACTANT                    WT FRACTION      ENERGY      TEMP
                                          (SEE NOTE)     KJ/KG-MOL      K  
 FUEL        paraffin                     1.0000000  -1860600.000    298.150
 OXIDANT     N2O                          1.0000000         0.000      0.000

 O/F=    5.00000  %FUEL= 16.666667  R,EQ.RATIO= 1.827705  PHI,EQ.RATIO= 1.827705

                 CHAMBER   THROAT     EXIT
 Pinf/P            1.0000   1.8175   27.605
 P, BAR            65.861   36.237   2.3859
 T, K             2177.34  1916.24  1034.66
 RHO, KG/CU M    8.7881 0 5.4940 0 6.6994-1
 H, KJ/KG         -309.55  -729.99 -2076.70
 U, KJ/KG        -1058.99 -1389.56 -2432.83
 G, KJ/KG        -20985.0 -18926.1 -11901.6
 S, KJ/(KG)(K)     9.4957   9.4957   9.4957

 M, (1/n)          24.156   24.156   24.156
 MW, MOL WT        24.156   24.156   24.156
 Cp, KJ/(KG)(K)    1.6232   1.5963   1.4366
 GAMMAs            1.2691   1.2749   1.3151
 SON VEL,M/SEC      975.3    917.0    684.4
 MACH NUMBER        0.000    1.000    2.747

 PERFORMANCE PARAMETERS

 Ae/At                      1.0000   4.0000
 CSTAR, M/SEC               1307.3   1307.3
 CF                         0.7014   1.4380
 Ivac, M/SEC                1636.3   2069.4
 Isp, M/SEC                  917.0   1880.0

 MASS FRACTIONS

 *CO             0.28881   *CO2            0.08071   *H              0.00001
 HCN             0.00001   *H2             0.01079   H2O             0.08924
 NH3             0.00002   *N2             0.53038   *OH             0.00002

  * THERMODYNAMIC PROPERTIES FITTED TO 20000.K

 NOTE. WEIGHT FRACTION OF FUEL IN TOTAL FUELS AND OF OXIDANT IN TOTAL OXIDANTS

           THEORETICAL ROCKET PERFORMANCE ASSUMING FROZEN COMPOSITION

 Pin =   969.9 PSIA
 CASE = _______________

             REACTANT                    WT FRACTION      ENERGY      TEMP
                                          (SEE NOTE)     KJ/KG-MOL      K  
 FUEL        paraffin                     1.0000000  -1860600.000    298.150
 OXIDANT     N2O                          1.0000000         0.000      0.000

 O/F=    5.00000  %FUEL= 16.666667  R,EQ.RATIO= 1.827705  PHI,EQ.RATIO= 1.827705

                 CHAMBER   THROAT     EXIT
 Pinf/P            1.0000   1.8175   27.605
 P, BAR            66.874   36.794   2.4226
 T, K             2177.35  1916.25  1034.67
 RHO, KG/CU M    8.9232 0 5.5785 0 6.8025-1
 H, KJ/KG         -309.55  -729.99 -2076.71
 U, KJ/KG        -1059.00 -1389.56 -2432.84
 G, KJ/KG        -20973.7 -18916.2 -11896.2
 S, KJ/(KG)(K)     9.4905   9.4905   9.4905

 M, (1/n)          24.156   24.156   24.156
 MW, MOL WT        24.156   24.156   24.156
 Cp, KJ/(KG)(K)    1.6232   1.5963   1.4366
 GAMMAs            1.2691   1.2749   1.3151
 SON VEL,M/SEC      975.3    917.0    684.4
 MACH NUMBER        0.000    1.000    2.747

 PERFORMANCE PARAMETERS

 Ae/At                      1.0000   4.0000
 CSTAR, M/SEC               1307.3   1307.3
 CF                         0.7014   1.4380
 Ivac, M/SEC                1636.3   2069.4
 Isp, M/SEC                  917.0   1880.0

 MASS FRACTIONS

 *CO             0.28881   *CO2            0.08071   *H              0.00001
 HCN             0.00001   *H2             0.01079   H2O             0.08924
 NH3             0.00002   *N2             0.53038   *OH             0.00002

  * THERMODYNAMIC PROPERTIES FITTED TO 20000.K

 NOTE. WEIGHT FRACTION OF FUEL IN TOTAL FUELS AND OF OXIDANT IN TOTAL OXIDANTS

           THEORETICAL ROCKET PERFORMANCE ASSUMING FROZEN COMPOSITION

 Pin =   984.6 PSIA
 CASE = _______________

             REACTANT                    WT FRACTION      ENERGY      TEMP
                                          (SEE NOTE)     KJ/KG-MOL      K  
 FUEL        paraffin                     1.0000000  -1860600.000    298.150
 OXIDANT     N2O                          1.0000000         0.000      0.000

 O/F=    5.00000  %FUEL= 16.666667  R,EQ.RATIO= 1.827705  PHI,EQ.RATIO= 1.827705

                 CHAMBER   THROAT     EXIT
 Pinf/P            1.0000   1.8175   27.605
 P, BAR            67.888   37.352   2.4593
 T, K             2177.36  1916.27  1034.68
 RHO, KG/CU M    9.0584 0 5.6630 0 6.9055-1
 H, KJ/KG         -309.55  -729.99 -2076.71
 U, KJ/KG        -1059.00 -1389.57 -2432.85
 G, KJ/KG        -20962.5 -18906.3 -11891.0
 S, KJ/(KG)(K)     9.4853   9.4853   9.4853

 M, (1/n)          24.156   24.156   24.156
 MW, MOL WT        24.156   24.156   24.156
 Cp, KJ/(KG)(K)    1.6232   1.5963   1.4366
 GAMMAs            1.2691   1.2749   1.3151
 SON VEL,M/SEC      975.3    917.0    684.4
 MACH NUMBER        0.000    1.000    2.747

 PERFORMANCE PARAMETERS

 Ae/At                      1.0000   4.0000
 CSTAR, M/SEC               1307.3   1307.3
 CF                         0.7014   1.4380
 Ivac, M/SEC                1636.3   2069.4
 Isp, M/SEC                  917.0   1880.0

 MASS FRACTIONS

 *CO             0.28881   *CO2            0.08071   *H              0.00001
 HCN             0.00001   *H2             0.01079   H2O             0.08925
 NH3             0.00002   *N2             0.53038   *OH             0.00002

  * THERMODYNAMIC PROPERTIES FITTED TO 20000.K

 NOTE. WEIGHT FRACTION OF FUEL IN TOTAL FUELS AND OF OXIDANT IN TOTAL OXIDANTS

           THEORETICAL ROCKET PERFORMANCE ASSUMING FROZEN COMPOSITION

 Pin =   999.3 PSIA
 CASE = _______________

             REACTANT                    WT FRACTION      ENERGY      TEMP
                                          (SEE NOTE)     KJ/KG-MOL      K  
 FUEL        paraffin                     1.0000000  -1860600.000    298.150
 OXIDANT     N2O                          1.0000000         0.000      0.000

 O/F=    5.00000  %FUEL= 16.666667  R,EQ.RATIO= 1.827705  PHI,EQ.RATIO= 1.827705

                 CHAMBER   THROAT     EXIT
 Pinf/P            1.0000   1.8175   27.605
 P, BAR            68.901   37.909   2.4960
 T, K             2177.38  1916.28  1034.69
 RHO, KG/CU M    9.1935 0 5.7475 0 7.0085-1
 H, KJ/KG         -309.55  -729.99 -2076.72
 U, KJ/KG        -1059.00 -1389.57 -2432.86
 G, KJ/KG        -20951.5 -18896.7 -11885.8
 S, KJ/(KG)(K)     9.4802   9.4802   9.4802

 M, (1/n)          24.156   24.156   24.156
 MW, MOL WT        24.156   24.156   24.156
 Cp, KJ/(KG)(K)    1.6232   1.5963   1.4366
 GAMMAs            1.2691   1.2749   1.3151
 SON VEL,M/SEC      975.3    917.0    684.4
 MACH NUMBER        0.000    1.000    2.747

 PERFORMANCE PARAMETERS

 Ae/At                      1.0000   4.0000
 CSTAR, M/SEC               1307.3   1307.3
 CF                         0.7014   1.4380
 Ivac, M/SEC                1636.3   2069.4
 Isp, M/SEC                  917.0   1880.0

 MASS FRACTIONS

 *CO             0.28881   *CO2            0.08071   *H              0.00001
 HCN             0.00001   *H2             0.01079   H2O             0.08925
 NH3             0.00002   *N2             0.53038   *OH             0.00002

  * THERMODYNAMIC PROPERTIES FITTED TO 20000.K

 NOTE. WEIGHT FRACTION OF FUEL IN TOTAL FUELS AND OF OXIDANT IN TOTAL OXIDANTS

           THEORETICAL ROCKET PERFORMANCE ASSUMING FROZEN COMPOSITION

 Pin =  1014.0 PSIA
 CASE = _______________

             REACTANT                    WT FRACTION      ENERGY      TEMP
                                          (SEE NOTE)     KJ/KG-MOL      K  
 FUEL        paraffin                     1.0000000  -1860600.000    298.150
 OXIDANT     N2O                          1.0000000         0.000      0.000

 O/F=    5.00000  %FUEL= 16.666667  R,EQ.RATIO= 1.827705  PHI,EQ.RATIO= 1.827705

                 CHAMBER   THROAT     EXIT
 Pinf/P            1.0000   1.8175   27.604
 P, BAR            69.914   38.467   2.5327
 T, K             2177.39  1916.29  1034.70
 RHO, KG/CU M    9.3287 0 5.8320 0 7.1116-1
 H, KJ/KG         -309.55  -729.99 -2076.73
 U, KJ/KG        -1059.01 -1389.57 -2432.87
 G, KJ/KG        -20940.7 -18887.2 -11880.7
 S, KJ/(KG)(K)     9.4752   9.4752   9.4752

 M, (1/n)          24.156   24.156   24.156
 MW, MOL WT        24.156   24.156   24.156
 Cp, KJ/(KG)(K)    1.6232   1.5963   1.4366
 GAMMAs            1.2691   1.2749   1.3151
 SON VEL,M/SEC      975.3    917.0    684.4
 MACH NUMBER        0.000    1.000    2.747

 PERFORMANCE PARAMETERS

 Ae/At                      1.0000   4.0000
 CSTAR, M/SEC               1307.3   1307.3
 CF                         0.7014   1.4380
 Ivac, M/SEC                1636.3   2069.4
 Isp, M/SEC                  917.0   1880.0

 MASS FRACTIONS

 *CO             0.28881   *CO2            0.08071   *H              0.00001
 HCN             0.00001   *H2             0.01079   H2O             0.08925
 NH3             0.00002   *N2             0.53037   *OH             0.00002

  * THERMODYNAMIC PROPERTIES FITTED TO 20000.K

 NOTE. WEIGHT FRACTION OF FUEL IN TOTAL FUELS AND OF OXIDANT IN TOTAL OXIDANTS

           THEORETICAL ROCKET PERFORMANCE ASSUMING FROZEN COMPOSITION

 Pin =  1028.7 PSIA
 CASE = _______________

             REACTANT                    WT FRACTION      ENERGY      TEMP
                                          (SEE NOTE)     KJ/KG-MOL      K  
 FUEL        paraffin                     1.0000000  -1860600.000    298.150
 OXIDANT     N2O                          1.0000000         0.000      0.000

 O/F=    5.00000  %FUEL= 16.666667  R,EQ.RATIO= 1.827705  PHI,EQ.RATIO= 1.827705

                 CHAMBER   THROAT     EXIT
 Pinf/P            1.0000   1.8175   27.604
 P, BAR            70.927   39.024   2.5694
 T, K             2177.40  1916.30  1034.70
 RHO, KG/CU M    9.4639 0 5.9165 0 7.2146-1
 H, KJ/KG         -309.55  -729.99 -2076.74
 U, KJ/KG        -1059.01 -1389.58 -2432.88
 G, KJ/KG        -20930.0 -18877.8 -11875.6
 S, KJ/(KG)(K)     9.4702   9.4702   9.4702

 M, (1/n)          24.156   24.156   24.156
 MW, MOL WT        24.156   24.156   24.156
 Cp, KJ/(KG)(K)    1.6232   1.5963   1.4366
 GAMMAs            1.2691   1.2749   1.3151
 SON VEL,M/SEC      975.3    917.0    684.4
 MACH NUMBER        0.000    1.000    2.747

 PERFORMANCE PARAMETERS

 Ae/At                      1.0000   4.0000
 CSTAR, M/SEC               1307.3   1307.3
 CF                         0.7014   1.4380
 Ivac, M/SEC                1636.3   2069.4
 Isp, M/SEC                  917.0   1880.0

 MASS FRACTIONS

 *CO             0.28881   *CO2            0.08071   *H              0.00001
 HCN             0.00001   *H2             0.01079   H2O             0.08925
 NH3             0.00002   *N2             0.53037   *OH             0.00002

  * THERMODYNAMIC PROPERTIES FITTED TO 20000.K

 NOTE. WEIGHT FRACTION OF FUEL IN TOTAL FUELS AND OF OXIDANT IN TOTAL OXIDANTS

           THEORETICAL ROCKET PERFORMANCE ASSUMING FROZEN COMPOSITION

 Pin =  1043.4 PSIA
 CASE = _______________

             REACTANT                    WT FRACTION      ENERGY      TEMP
                                          (SEE NOTE)     KJ/KG-MOL      K  
 FUEL        paraffin                     1.0000000  -1860600.000    298.150
 OXIDANT     N2O                          1.0000000         0.000      0.000

 O/F=    5.00000  %FUEL= 16.666667  R,EQ.RATIO= 1.827705  PHI,EQ.RATIO= 1.827705

                 CHAMBER   THROAT     EXIT
 Pinf/P            1.0000   1.8175   27.604
 P, BAR            71.941   39.581   2.6061
 T, K             2177.41  1916.31  1034.71
 RHO, KG/CU M    9.5990 0 6.0010 0 7.3176-1
 H, KJ/KG         -309.55  -730.00 -2076.74
 U, KJ/KG        -1059.01 -1389.58 -2432.89
 G, KJ/KG        -20919.5 -18868.5 -11870.6
 S, KJ/(KG)(K)     9.4653   9.4653   9.4653

 M, (1/n)          24.156   24.156   24.156
 MW, MOL WT        24.156   24.156   24.156
 Cp, KJ/(KG)(K)    1.6232   1.5963   1.4366
 GAMMAs            1.2691   1.2749   1.3151
 SON VEL,M/SEC      975.3    917.0    684.4
 MACH NUMBER        0.000    1.000    2.747

 PERFORMANCE PARAMETERS

 Ae/At                     1.00000   4.0000
 CSTAR, M/SEC               1307.3   1307.3
 CF                         0.7014   1.4380
 Ivac, M/SEC                1636.3   2069.4
 Isp, M/SEC                  917.0   1880.0

 MASS FRACTIONS

 *CO             0.28881   *CO2            0.08071   *H              0.00001
 HCN             0.00001   *H2             0.01079   H2O             0.08925
 NH3             0.00002   *N2             0.53037   *OH             0.00002

  * THERMODYNAMIC PROPERTIES FITTED TO 20000.K

 NOTE. WEIGHT FRACTION OF FUEL IN TOTAL FUELS AND OF OXIDANT IN TOTAL OXIDANTS

           THEORETICAL ROCKET PERFORMANCE ASSUMING FROZEN COMPOSITION

 Pin =  1058.1 PSIA
 CASE = _______________

             REACTANT                    WT FRACTION      ENERGY      TEMP
                                          (SEE NOTE)     KJ/KG-MOL      K  
 FUEL        paraffin                     1.0000000  -1860600.000    298.150
 OXIDANT     N2O                          1.0000000         0.000      0.000

 O/F=    5.00000  %FUEL= 16.666667  R,EQ.RATIO= 1.827705  PHI,EQ.RATIO= 1.827705

                 CHAMBER   THROAT     EXIT
 Pinf/P            1.0000   1.8175   27.604
 P, BAR            72.954   40.139   2.6428
 T, K             2177.42  1916.32  1034.72
 RHO, KG/CU M    9.7342 0 6.0854 0 7.4207-1
 H, KJ/KG         -309.55  -730.00 -2076.75
 U, KJ/KG        -1059.01 -1389.59 -2432.90
 G, KJ/KG        -20909.1 -18859.4 -11865.7
 S, KJ/(KG)(K)     9.4605   9.4605   9.4605

 M, (1/n)          24.156   24.156   24.156
 MW, MOL WT        24.156   24.156   24.156
 Cp, KJ/(KG)(K)    1.6232   1.5963   1.4366
 GAMMAs            1.2691   1.2749   1.3151
 SON VEL,M/SEC      975.3    917.0    684.4
 MACH NUMBER        0.000    1.000    2.747

 PERFORMANCE PARAMETERS

 Ae/At                      1.0000   4.0000
 CSTAR, M/SEC               1307.3   1307.3
 CF                         0.7014   1.4380
 Ivac, M/SEC                1636.3   2069.4
 Isp, M/SEC                  917.0   1880.0

 MASS FRACTIONS

 *CO             0.28881   *CO2            0.08071   *H              0.00001
 HCN             0.00001   *H2             0.01079   H2O             0.08925
 NH3             0.00002   *N2             0.53037   *OH             0.00002

  * THERMODYNAMIC PROPERTIES FITTED TO 20000.K

 NOTE. WEIGHT FRACTION OF FUEL IN TOTAL FUELS AND OF OXIDANT IN TOTAL OXIDANTS