         NASA-GLENN CHEMICAL EQUILIBRIUM PROGRAM CEA2, FEBRUARY 5, 2004
                   BY  BONNIE MCBRIDE AND SANFORD GORDON
      REFS: NASA RP-1311, PART I, 1994 AND NASA RP-1311, PART II, 1996

 *******************************************************************************

  
 ### CEA analysis performed on Tue 12-Oct-2021 14:56:21
  
 # Problem Type: "Rocket" (Infinite Area Combustor)
  
 prob case=_______________1641 ro frozen
  
 # Pressure (24 values):
 p,atm= 49, 50, 51, 52, 53, 54, 55, 56, 57, 58, 59, 60, 61, 62, 63, 64, 65, 66, 6
 7, 68, 69, 70, 71, 72
 # Supersonic Area Ratio (1 value):
 supar= 4
  
 # Oxidizer/Fuel Wt. ratio (31 values):
 o/f= 24.3, 24.5, 24.7, 24.9, 25.1, 25.3, 25.5, 25.7, 25.9, 26.1, 26.3, 26.5, 26.
 7, 26.9, 27.1, 27.3, 27.5, 27.7, 27.9, 28.1, 28.3, 2
  
 # You selected the following fuels and oxidizers:
 reac
 fuel paraffin          wt%=100.0000
 oxid N2O               wt%=100.0000
  
 # You selected these options for output:
 # short version of output
 output short
 # Proportions of any products will be expressed as Mass Fractions.
 output massf
 # Heat will be expressed as siunits
 output siunits
  
 # Input prepared by this script:/var/www/sites/cearun.grc.nasa.gov/cgi-bin/CEARU
 N/prepareInputFile.cgi
  
 ### IMPORTANT:  The following line is the end of your CEA input file!
 end

           THEORETICAL ROCKET PERFORMANCE ASSUMING FROZEN COMPOSITION

 Pin =   720.1 PSIA
 CASE = _______________

             REACTANT                    WT FRACTION      ENERGY      TEMP
                                          (SEE NOTE)     KJ/KG-MOL      K  
 FUEL        paraffin                     1.0000000  -1860600.000    298.150
 OXIDANT     N2O                          1.0000000         0.000      0.000

 O/F=   24.30000  %FUEL=  3.952569  R,EQ.RATIO= 0.376071  PHI,EQ.RATIO= 0.376071

                 CHAMBER   THROAT     EXIT
 Pinf/P            1.0000   1.8208   27.986
 P, BAR            49.649   27.268   1.7741
 T, K             1678.96  1474.33   784.94
 RHO, KG/CU M    1.0474 1 6.5506 0 8.0053-1
 H, KJ/KG         -73.412  -339.86 -1188.49
 U, KJ/KG         -547.44  -756.12 -1410.10
 G, KJ/KG        -13209.5 -11874.9 -7329.79
 S, KJ/(KG)(K)     7.8239   7.8239   7.8239

 M, (1/n)          29.449   29.449   29.449
 Cp, KJ/(KG)(K)    1.3135   1.2898   1.1545
 GAMMAs            1.2738   1.2802   1.3237
 SON VEL,M/SEC      777.1    730.0    541.6
 MACH NUMBER        0.000    1.000    2.757

 PERFORMANCE PARAMETERS

 Ae/At                      1.0000   4.0000
 CSTAR, M/SEC               1038.3   1038.3
 CF                         0.7031   1.4383
 Ivac, M/SEC                1300.2   1641.8
 Isp, M/SEC                  730.0   1493.4

 MASS FRACTIONS

 *CO2            0.12676   H2O             0.04403   *NO             0.00239
 NO2             0.00008   *N2             0.61018   *OH             0.00007
 *O2             0.21647

  * THERMODYNAMIC PROPERTIES FITTED TO 20000.K

 NOTE. WEIGHT FRACTION OF FUEL IN TOTAL FUELS AND OF OXIDANT IN TOTAL OXIDANTS

           THEORETICAL ROCKET PERFORMANCE ASSUMING FROZEN COMPOSITION

 Pin =   734.8 PSIA
 CASE = _______________

             REACTANT                    WT FRACTION      ENERGY      TEMP
                                          (SEE NOTE)     KJ/KG-MOL      K  
 FUEL        paraffin                     1.0000000  -1860600.000    298.150
 OXIDANT     N2O                          1.0000000         0.000      0.000

 O/F=   24.30000  %FUEL=  3.952569  R,EQ.RATIO= 0.376071  PHI,EQ.RATIO= 0.376071

                 CHAMBER   THROAT     EXIT
 Pinf/P            1.0000   1.8208   27.986
 P, BAR            50.663   27.824   1.8103
 T, K             1678.96  1474.33   784.94
 RHO, KG/CU M    1.0688 1 6.6843 0 8.1686-1
 H, KJ/KG         -73.412  -339.86 -1188.49
 U, KJ/KG         -547.44  -756.12 -1410.11
 G, KJ/KG        -13199.9 -11866.5 -7325.33
 S, KJ/(KG)(K)     7.8182   7.8182   7.8182

 M, (1/n)          29.449   29.449   29.449
 Cp, KJ/(KG)(K)    1.3135   1.2898   1.1545
 GAMMAs            1.2738   1.2802   1.3237
 SON VEL,M/SEC      777.1    730.0    541.6
 MACH NUMBER        0.000    1.000    2.757

 PERFORMANCE PARAMETERS

 Ae/At                     1.00000   4.0000
 CSTAR, M/SEC               1038.3   1038.3
 CF                         0.7031   1.4383
 Ivac, M/SEC                1300.2   1641.8
 Isp, M/SEC                  730.0   1493.4

 MASS FRACTIONS

 *CO2            0.12676   H2O             0.04403   *NO             0.00239
 NO2             0.00008   *N2             0.61018   *OH             0.00007
 *O2             0.21647

  * THERMODYNAMIC PROPERTIES FITTED TO 20000.K

 NOTE. WEIGHT FRACTION OF FUEL IN TOTAL FUELS AND OF OXIDANT IN TOTAL OXIDANTS

           THEORETICAL ROCKET PERFORMANCE ASSUMING FROZEN COMPOSITION

 Pin =   749.5 PSIA
 CASE = _______________

             REACTANT                    WT FRACTION      ENERGY      TEMP
                                          (SEE NOTE)     KJ/KG-MOL      K  
 FUEL        paraffin                     1.0000000  -1860600.000    298.150
 OXIDANT     N2O                          1.0000000         0.000      0.000

 O/F=   24.30000  %FUEL=  3.952569  R,EQ.RATIO= 0.376071  PHI,EQ.RATIO= 0.376071

                 CHAMBER   THROAT     EXIT
 Pinf/P            1.0000   1.8208   27.986
 P, BAR            51.676   28.381   1.8465
 T, K             1678.96  1474.33   784.94
 RHO, KG/CU M    1.0901 1 6.8180 0 8.3320-1
 H, KJ/KG         -73.412  -339.86 -1188.49
 U, KJ/KG         -547.44  -756.12 -1410.11
 G, KJ/KG        -13190.6 -11858.3 -7320.95
 S, KJ/(KG)(K)     7.8127   7.8127   7.8127

 M, (1/n)          29.449   29.449   29.449
 Cp, KJ/(KG)(K)    1.3135   1.2898   1.1545
 GAMMAs            1.2738   1.2802   1.3237
 SON VEL,M/SEC      777.1    730.0    541.6
 MACH NUMBER        0.000    1.000    2.757

 PERFORMANCE PARAMETERS

 Ae/At                      1.0000   4.0000
 CSTAR, M/SEC               1038.3   1038.3
 CF                         0.7031   1.4383
 Ivac, M/SEC                1300.2   1641.8
 Isp, M/SEC                  730.0   1493.4

 MASS FRACTIONS

 *CO2            0.12676   H2O             0.04403   *NO             0.00239
 NO2             0.00009   *N2             0.61018   *OH             0.00007
 *O2             0.21647

  * THERMODYNAMIC PROPERTIES FITTED TO 20000.K

 NOTE. WEIGHT FRACTION OF FUEL IN TOTAL FUELS AND OF OXIDANT IN TOTAL OXIDANTS

           THEORETICAL ROCKET PERFORMANCE ASSUMING FROZEN COMPOSITION

 Pin =   764.2 PSIA
 CASE = _______________

             REACTANT                    WT FRACTION      ENERGY      TEMP
                                          (SEE NOTE)     KJ/KG-MOL      K  
 FUEL        paraffin                     1.0000000  -1860600.000    298.150
 OXIDANT     N2O                          1.0000000         0.000      0.000

 O/F=   24.30000  %FUEL=  3.952569  R,EQ.RATIO= 0.376071  PHI,EQ.RATIO= 0.376071

                 CHAMBER   THROAT     EXIT
 Pinf/P            1.0000   1.8208   27.985
 P, BAR            52.689   28.937   1.8827
 T, K             1678.97  1474.34   784.94
 RHO, KG/CU M    1.1115 1 6.9517 0 8.4954-1
 H, KJ/KG         -73.412  -339.86 -1188.49
 U, KJ/KG         -547.45  -756.12 -1410.11
 G, KJ/KG        -13181.4 -11850.3 -7316.66
 S, KJ/(KG)(K)     7.8072   7.8072   7.8072

 M, (1/n)          29.449   29.449   29.449
 Cp, KJ/(KG)(K)    1.3135   1.2898   1.1545
 GAMMAs            1.2738   1.2802   1.3237
 SON VEL,M/SEC      777.1    730.0    541.6
 MACH NUMBER        0.000    1.000    2.757

 PERFORMANCE PARAMETERS

 Ae/At                      1.0000   4.0000
 CSTAR, M/SEC               1038.3   1038.3
 CF                         0.7031   1.4383
 Ivac, M/SEC                1300.2   1641.8
 Isp, M/SEC                  730.0   1493.4

 MASS FRACTIONS

 *CO2            0.12676   H2O             0.04403   *NO             0.00239
 NO2             0.00009   *N2             0.61018   *OH             0.00007
 *O2             0.21647

  * THERMODYNAMIC PROPERTIES FITTED TO 20000.K

 NOTE. WEIGHT FRACTION OF FUEL IN TOTAL FUELS AND OF OXIDANT IN TOTAL OXIDANTS

           THEORETICAL ROCKET PERFORMANCE ASSUMING FROZEN COMPOSITION

 Pin =   778.9 PSIA
 CASE = _______________

             REACTANT                    WT FRACTION      ENERGY      TEMP
                                          (SEE NOTE)     KJ/KG-MOL      K  
 FUEL        paraffin                     1.0000000  -1860600.000    298.150
 OXIDANT     N2O                          1.0000000         0.000      0.000

 O/F=   24.30000  %FUEL=  3.952569  R,EQ.RATIO= 0.376071  PHI,EQ.RATIO= 0.376071

                 CHAMBER   THROAT     EXIT
 Pinf/P            1.0000   1.8208   27.985
 P, BAR            53.702   29.493   1.9189
 T, K             1678.97  1474.34   784.94
 RHO, KG/CU M    1.1329 1 7.0854 0 8.6587-1
 H, KJ/KG         -73.412  -339.86 -1188.49
 U, KJ/KG         -547.45  -756.12 -1410.11
 G, KJ/KG        -13172.4 -11842.3 -7312.45
 S, KJ/(KG)(K)     7.8018   7.8018   7.8018

 M, (1/n)          29.449   29.449   29.449
 Cp, KJ/(KG)(K)    1.3135   1.2898   1.1545
 GAMMAs            1.2738   1.2802   1.3237
 SON VEL,M/SEC      777.1    730.0    541.6
 MACH NUMBER        0.000    1.000    2.757

 PERFORMANCE PARAMETERS

 Ae/At                      1.0000   4.0000
 CSTAR, M/SEC               1038.3   1038.3
 CF                         0.7031   1.4383
 Ivac, M/SEC                1300.2   1641.8
 Isp, M/SEC                  730.0   1493.4

 MASS FRACTIONS

 *CO2            0.12676   H2O             0.04403   *NO             0.00240
 NO2             0.00009   *N2             0.61018   *OH             0.00007
 *O2             0.21647

  * THERMODYNAMIC PROPERTIES FITTED TO 20000.K

 NOTE. WEIGHT FRACTION OF FUEL IN TOTAL FUELS AND OF OXIDANT IN TOTAL OXIDANTS

           THEORETICAL ROCKET PERFORMANCE ASSUMING FROZEN COMPOSITION

 Pin =   793.6 PSIA
 CASE = _______________

             REACTANT                    WT FRACTION      ENERGY      TEMP
                                          (SEE NOTE)     KJ/KG-MOL      K  
 FUEL        paraffin                     1.0000000  -1860600.000    298.150
 OXIDANT     N2O                          1.0000000         0.000      0.000

 O/F=   24.30000  %FUEL=  3.952569  R,EQ.RATIO= 0.376071  PHI,EQ.RATIO= 0.376071

                 CHAMBER   THROAT     EXIT
 Pinf/P            1.0000   1.8208   27.985
 P, BAR            54.715   30.050   1.9551
 T, K             1678.97  1474.34   784.94
 RHO, KG/CU M    1.1543 1 7.2190 0 8.8221-1
 H, KJ/KG         -73.412  -339.86 -1188.49
 U, KJ/KG         -547.45  -756.12 -1410.11
 G, KJ/KG        -13163.5 -11834.6 -7308.32
 S, KJ/(KG)(K)     7.7965   7.7965   7.7965

 M, (1/n)          29.449   29.449   29.449
 Cp, KJ/(KG)(K)    1.3135   1.2898   1.1545
 GAMMAs            1.2738   1.2802   1.3237
 SON VEL,M/SEC      777.1    730.0    541.6
 MACH NUMBER        0.000    1.000    2.757

 PERFORMANCE PARAMETERS

 Ae/At                      1.0000   4.0000
 CSTAR, M/SEC               1038.3   1038.3
 CF                         0.7031   1.4383
 Ivac, M/SEC                1300.2   1641.8
 Isp, M/SEC                  730.0   1493.4

 MASS FRACTIONS

 *CO2            0.12676   H2O             0.04403   *NO             0.00240
 NO2             0.00009   *N2             0.61018   *OH             0.00006
 *O2             0.21647

  * THERMODYNAMIC PROPERTIES FITTED TO 20000.K

 NOTE. WEIGHT FRACTION OF FUEL IN TOTAL FUELS AND OF OXIDANT IN TOTAL OXIDANTS

           THEORETICAL ROCKET PERFORMANCE ASSUMING FROZEN COMPOSITION

 Pin =   808.3 PSIA
 CASE = _______________

             REACTANT                    WT FRACTION      ENERGY      TEMP
                                          (SEE NOTE)     KJ/KG-MOL      K  
 FUEL        paraffin                     1.0000000  -1860600.000    298.150
 OXIDANT     N2O                          1.0000000         0.000      0.000

 O/F=   24.30000  %FUEL=  3.952569  R,EQ.RATIO= 0.376071  PHI,EQ.RATIO= 0.376071

                 CHAMBER   THROAT     EXIT
 Pinf/P            1.0000   1.8208   27.985
 P, BAR            55.729   30.606   1.9913
 T, K             1678.97  1474.34   784.95
 RHO, KG/CU M    1.1756 1 7.3527 0 8.9855-1
 H, KJ/KG         -73.412  -339.86 -1188.49
 U, KJ/KG         -547.45  -756.12 -1410.11
 G, KJ/KG        -13154.8 -11826.9 -7304.27
 S, KJ/(KG)(K)     7.7913   7.7913   7.7913

 M, (1/n)          29.449   29.449   29.449
 Cp, KJ/(KG)(K)    1.3135   1.2898   1.1545
 GAMMAs            1.2738   1.2802   1.3237
 SON VEL,M/SEC      777.1    730.0    541.6
 MACH NUMBER        0.000    1.000    2.757

 PERFORMANCE PARAMETERS

 Ae/At                      1.0000   4.0000
 CSTAR, M/SEC               1038.3   1038.3
 CF                         0.7031   1.4383
 Ivac, M/SEC                1300.2   1641.8
 Isp, M/SEC                  730.0   1493.4

 MASS FRACTIONS

 *CO2            0.12676   H2O             0.04403   *NO             0.00240
 NO2             0.00009   *N2             0.61018   *OH             0.00006
 *O2             0.21647

  * THERMODYNAMIC PROPERTIES FITTED TO 20000.K

 NOTE. WEIGHT FRACTION OF FUEL IN TOTAL FUELS AND OF OXIDANT IN TOTAL OXIDANTS

           THEORETICAL ROCKET PERFORMANCE ASSUMING FROZEN COMPOSITION

 Pin =   823.0 PSIA
 CASE = _______________

             REACTANT                    WT FRACTION      ENERGY      TEMP
                                          (SEE NOTE)     KJ/KG-MOL      K  
 FUEL        paraffin                     1.0000000  -1860600.000    298.150
 OXIDANT     N2O                          1.0000000         0.000      0.000

 O/F=   24.30000  %FUEL=  3.952569  R,EQ.RATIO= 0.376071  PHI,EQ.RATIO= 0.376071

                 CHAMBER   THROAT     EXIT
 Pinf/P            1.0000   1.8208   27.985
 P, BAR            56.742   31.163   2.0276
 T, K             1678.97  1474.34   784.95
 RHO, KG/CU M    1.1970 1 7.4864 0 9.1488-1
 H, KJ/KG         -73.412  -339.86 -1188.49
 U, KJ/KG         -547.45  -756.12 -1410.11
 G, KJ/KG        -13146.3 -11819.5 -7300.28
 S, KJ/(KG)(K)     7.7862   7.7862   7.7862

 M, (1/n)          29.449   29.449   29.449
 Cp, KJ/(KG)(K)    1.3135   1.2898   1.1545
 GAMMAs            1.2738   1.2802   1.3237
 SON VEL,M/SEC      777.1    730.0    541.6
 MACH NUMBER        0.000    1.000    2.757

 PERFORMANCE PARAMETERS

 Ae/At                      1.0000   4.0000
 CSTAR, M/SEC               1038.3   1038.3
 CF                         0.7031   1.4383
 Ivac, M/SEC                1300.2   1641.8
 Isp, M/SEC                  730.0   1493.4

 MASS FRACTIONS

 *CO2            0.12676   H2O             0.04404   *NO             0.00240
 NO2             0.00009   *N2             0.61018   *OH             0.00006
 *O2             0.21647

  * THERMODYNAMIC PROPERTIES FITTED TO 20000.K

 NOTE. WEIGHT FRACTION OF FUEL IN TOTAL FUELS AND OF OXIDANT IN TOTAL OXIDANTS

           THEORETICAL ROCKET PERFORMANCE ASSUMING FROZEN COMPOSITION

 Pin =   837.7 PSIA
 CASE = _______________

             REACTANT                    WT FRACTION      ENERGY      TEMP
                                          (SEE NOTE)     KJ/KG-MOL      K  
 FUEL        paraffin                     1.0000000  -1860600.000    298.150
 OXIDANT     N2O                          1.0000000         0.000      0.000

 O/F=   24.30000  %FUEL=  3.952569  R,EQ.RATIO= 0.376071  PHI,EQ.RATIO= 0.376071

                 CHAMBER   THROAT     EXIT
 Pinf/P            1.0000   1.8208   27.985
 P, BAR            57.755   31.719   2.0638
 T, K             1678.97  1474.35   784.95
 RHO, KG/CU M    1.2184 1 7.6201 0 9.3122-1
 H, KJ/KG         -73.412  -339.86 -1188.49
 U, KJ/KG         -547.45  -756.12 -1410.11
 G, KJ/KG        -13137.9 -11812.1 -7296.37
 S, KJ/(KG)(K)     7.7812   7.7812   7.7812

 M, (1/n)          29.449   29.449   29.449
 Cp, KJ/(KG)(K)    1.3135   1.2898   1.1545
 GAMMAs            1.2738   1.2802   1.3237
 SON VEL,M/SEC      777.1    730.0    541.6
 MACH NUMBER        0.000    1.000    2.757

 PERFORMANCE PARAMETERS

 Ae/At                      1.0000   4.0000
 CSTAR, M/SEC               1038.3   1038.3
 CF                         0.7031   1.4383
 Ivac, M/SEC                1300.2   1641.8
 Isp, M/SEC                  730.0   1493.4

 MASS FRACTIONS

 *CO2            0.12676   H2O             0.04404   *NO             0.00240
 NO2             0.00009   *N2             0.61018   *OH             0.00006
 *O2             0.21647

  * THERMODYNAMIC PROPERTIES FITTED TO 20000.K

 NOTE. WEIGHT FRACTION OF FUEL IN TOTAL FUELS AND OF OXIDANT IN TOTAL OXIDANTS

           THEORETICAL ROCKET PERFORMANCE ASSUMING FROZEN COMPOSITION

 Pin =   852.4 PSIA
 CASE = _______________

             REACTANT                    WT FRACTION      ENERGY      TEMP
                                          (SEE NOTE)     KJ/KG-MOL      K  
 FUEL        paraffin                     1.0000000  -1860600.000    298.150
 OXIDANT     N2O                          1.0000000         0.000      0.000

 O/F=   24.30000  %FUEL=  3.952569  R,EQ.RATIO= 0.376071  PHI,EQ.RATIO= 0.376071

                 CHAMBER   THROAT     EXIT
 Pinf/P            1.0000   1.8208   27.985
 P, BAR            58.768   32.276   2.1000
 T, K             1678.98  1474.35   784.95
 RHO, KG/CU M    1.2398 1 7.7538 0 9.4756-1
 H, KJ/KG         -73.412  -339.86 -1188.50
 U, KJ/KG         -547.45  -756.12 -1410.11
 G, KJ/KG        -13129.7 -11804.9 -7292.53
 S, KJ/(KG)(K)     7.7763   7.7763   7.7763

 M, (1/n)          29.449   29.449   29.449
 Cp, KJ/(KG)(K)    1.3135   1.2898   1.1545
 GAMMAs            1.2738   1.2802   1.3237
 SON VEL,M/SEC      777.1    730.0    541.6
 MACH NUMBER        0.000    1.000    2.757

 PERFORMANCE PARAMETERS

 Ae/At                      1.0000   4.0000
 CSTAR, M/SEC               1038.3   1038.3
 CF                         0.7031   1.4383
 Ivac, M/SEC                1300.2   1641.8
 Isp, M/SEC                  730.0   1493.4

 MASS FRACTIONS

 *CO2            0.12676   H2O             0.04404   *NO             0.00240
 NO2             0.00009   *N2             0.61018   *OH             0.00006
 *O2             0.21647

  * THERMODYNAMIC PROPERTIES FITTED TO 20000.K

 NOTE. WEIGHT FRACTION OF FUEL IN TOTAL FUELS AND OF OXIDANT IN TOTAL OXIDANTS

           THEORETICAL ROCKET PERFORMANCE ASSUMING FROZEN COMPOSITION

 Pin =   867.1 PSIA
 CASE = _______________

             REACTANT                    WT FRACTION      ENERGY      TEMP
                                          (SEE NOTE)     KJ/KG-MOL      K  
 FUEL        paraffin                     1.0000000  -1860600.000    298.150
 OXIDANT     N2O                          1.0000000         0.000      0.000

 O/F=   24.30000  %FUEL=  3.952569  R,EQ.RATIO= 0.376071  PHI,EQ.RATIO= 0.376071

                 CHAMBER   THROAT     EXIT
 Pinf/P            1.0000   1.8208   27.985
 P, BAR            59.782   32.832   2.1362
 T, K             1678.98  1474.35   784.95
 RHO, KG/CU M    1.2611 1 7.8874 0 9.6389-1
 H, KJ/KG         -73.412  -339.86 -1188.50
 U, KJ/KG         -547.45  -756.12 -1410.12
 G, KJ/KG        -13121.6 -11797.8 -7288.75
 S, KJ/(KG)(K)     7.7715   7.7715   7.7715

 M, (1/n)          29.449   29.449   29.449
 Cp, KJ/(KG)(K)    1.3135   1.2898   1.1545
 GAMMAs            1.2738   1.2802   1.3237
 SON VEL,M/SEC      777.1    730.0    541.6
 MACH NUMBER        0.000    1.000    2.757

 PERFORMANCE PARAMETERS

 Ae/At                      1.0000   4.0000
 CSTAR, M/SEC               1038.3   1038.3
 CF                         0.7031   1.4383
 Ivac, M/SEC                1300.2   1641.8
 Isp, M/SEC                  730.0   1493.4

 MASS FRACTIONS

 *CO2            0.12676   H2O             0.04404   *NO             0.00240
 NO2             0.00009   *N2             0.61018   *OH             0.00006
 *O2             0.21647

  * THERMODYNAMIC PROPERTIES FITTED TO 20000.K

 NOTE. WEIGHT FRACTION OF FUEL IN TOTAL FUELS AND OF OXIDANT IN TOTAL OXIDANTS

           THEORETICAL ROCKET PERFORMANCE ASSUMING FROZEN COMPOSITION

 Pin =   881.8 PSIA
 CASE = _______________

             REACTANT                    WT FRACTION      ENERGY      TEMP
                                          (SEE NOTE)     KJ/KG-MOL      K  
 FUEL        paraffin                     1.0000000  -1860600.000    298.150
 OXIDANT     N2O                          1.0000000         0.000      0.000

 O/F=   24.30000  %FUEL=  3.952569  R,EQ.RATIO= 0.376071  PHI,EQ.RATIO= 0.376071

                 CHAMBER   THROAT     EXIT
 Pinf/P            1.0000   1.8208   27.985
 P, BAR            60.795   33.389   2.1724
 T, K             1678.98  1474.35   784.95
 RHO, KG/CU M    1.2825 1 8.0211 0 9.8023-1
 H, KJ/KG         -73.412  -339.86 -1188.50
 U, KJ/KG         -547.45  -756.12 -1410.12
 G, KJ/KG        -13113.7 -11790.8 -7285.04
 S, KJ/(KG)(K)     7.7668   7.7668   7.7668

 M, (1/n)          29.449   29.449   29.449
 Cp, KJ/(KG)(K)    1.3135   1.2898   1.1545
 GAMMAs            1.2738   1.2802   1.3237
 SON VEL,M/SEC      777.1    730.0    541.6
 MACH NUMBER        0.000    1.000    2.757

 PERFORMANCE PARAMETERS

 Ae/At                     1.00000   4.0000
 CSTAR, M/SEC               1038.3   1038.3
 CF                         0.7031   1.4383
 Ivac, M/SEC                1300.2   1641.8
 Isp, M/SEC                  730.0   1493.4

 MASS FRACTIONS

 *CO2            0.12676   H2O             0.04404   *NO             0.00240
 NO2             0.00009   *N2             0.61018   *OH             0.00006
 *O2             0.21647

  * THERMODYNAMIC PROPERTIES FITTED TO 20000.K

 NOTE. WEIGHT FRACTION OF FUEL IN TOTAL FUELS AND OF OXIDANT IN TOTAL OXIDANTS

           THEORETICAL ROCKET PERFORMANCE ASSUMING FROZEN COMPOSITION

 Pin =   896.5 PSIA
 CASE = _______________

             REACTANT                    WT FRACTION      ENERGY      TEMP
                                          (SEE NOTE)     KJ/KG-MOL      K  
 FUEL        paraffin                     1.0000000  -1860600.000    298.150
 OXIDANT     N2O                          1.0000000         0.000      0.000

 O/F=   24.30000  %FUEL=  3.952569  R,EQ.RATIO= 0.376071  PHI,EQ.RATIO= 0.376071

                 CHAMBER   THROAT     EXIT
 Pinf/P            1.0000   1.8208   27.985
 P, BAR            61.808   33.945   2.2086
 T, K             1678.98  1474.35   784.95
 RHO, KG/CU M    1.3039 1 8.1548 0 9.9657-1
 H, KJ/KG         -73.412  -339.86 -1188.50
 U, KJ/KG         -547.45  -756.12 -1410.12
 G, KJ/KG        -13105.8 -11783.9 -7281.38
 S, KJ/(KG)(K)     7.7621   7.7621   7.7621

 M, (1/n)          29.449   29.449   29.449
 Cp, KJ/(KG)(K)    1.3135   1.2898   1.1545
 GAMMAs            1.2738   1.2802   1.3237
 SON VEL,M/SEC      777.1    730.0    541.6
 MACH NUMBER        0.000    1.000    2.757

 PERFORMANCE PARAMETERS

 Ae/At                      1.0000   4.0000
 CSTAR, M/SEC               1038.3   1038.3
 CF                         0.7031   1.4383
 Ivac, M/SEC                1300.2   1641.8
 Isp, M/SEC                  730.0   1493.4

 MASS FRACTIONS

 *CO2            0.12676   H2O             0.04404   *NO             0.00240
 NO2             0.00009   *N2             0.61018   *OH             0.00006
 *O2             0.21647

  * THERMODYNAMIC PROPERTIES FITTED TO 20000.K

 NOTE. WEIGHT FRACTION OF FUEL IN TOTAL FUELS AND OF OXIDANT IN TOTAL OXIDANTS

           THEORETICAL ROCKET PERFORMANCE ASSUMING FROZEN COMPOSITION

 Pin =   911.2 PSIA
 CASE = _______________

             REACTANT                    WT FRACTION      ENERGY      TEMP
                                          (SEE NOTE)     KJ/KG-MOL      K  
 FUEL        paraffin                     1.0000000  -1860600.000    298.150
 OXIDANT     N2O                          1.0000000         0.000      0.000

 O/F=   24.30000  %FUEL=  3.952569  R,EQ.RATIO= 0.376071  PHI,EQ.RATIO= 0.376071

                 CHAMBER   THROAT     EXIT
 Pinf/P            1.0000   1.8208   27.985
 P, BAR            62.822   34.502   2.2448
 T, K             1678.98  1474.35   784.95
 RHO, KG/CU M    1.3252 1 8.2885 0 1.0129 0
 H, KJ/KG         -73.412  -339.86 -1188.50
 U, KJ/KG         -547.45  -756.12 -1410.12
 G, KJ/KG        -13098.1 -11777.2 -7277.79
 S, KJ/(KG)(K)     7.7575   7.7575   7.7575

 M, (1/n)          29.449   29.449   29.449
 Cp, KJ/(KG)(K)    1.3135   1.2898   1.1545
 GAMMAs            1.2738   1.2802   1.3237
 SON VEL,M/SEC      777.1    730.0    541.6
 MACH NUMBER        0.000    1.000    2.757

 PERFORMANCE PARAMETERS

 Ae/At                      1.0000   4.0000
 CSTAR, M/SEC               1038.3   1038.3
 CF                         0.7031   1.4383
 Ivac, M/SEC                1300.2   1641.8
 Isp, M/SEC                  730.0   1493.4

 MASS FRACTIONS

 *CO2            0.12676   H2O             0.04404   *NO             0.00240
 NO2             0.00009   *N2             0.61018   *OH             0.00006
 *O2             0.21647

  * THERMODYNAMIC PROPERTIES FITTED TO 20000.K

 NOTE. WEIGHT FRACTION OF FUEL IN TOTAL FUELS AND OF OXIDANT IN TOTAL OXIDANTS

           THEORETICAL ROCKET PERFORMANCE ASSUMING FROZEN COMPOSITION

 Pin =   925.8 PSIA
 CASE = _______________

             REACTANT                    WT FRACTION      ENERGY      TEMP
                                          (SEE NOTE)     KJ/KG-MOL      K  
 FUEL        paraffin                     1.0000000  -1860600.000    298.150
 OXIDANT     N2O                          1.0000000         0.000      0.000

 O/F=   24.30000  %FUEL=  3.952569  R,EQ.RATIO= 0.376071  PHI,EQ.RATIO= 0.376071

                 CHAMBER   THROAT     EXIT
 Pinf/P            1.0000   1.8208   27.985
 P, BAR            63.835   35.058   2.2810
 T, K             1678.98  1474.35   784.96
 RHO, KG/CU M    1.3466 1 8.4222 0 1.0292 0
 H, KJ/KG         -73.412  -339.86 -1188.50
 U, KJ/KG         -547.45  -756.12 -1410.12
 G, KJ/KG        -13090.6 -11770.5 -7274.25
 S, KJ/(KG)(K)     7.7530   7.7530   7.7530

 M, (1/n)          29.449   29.449   29.449
 Cp, KJ/(KG)(K)    1.3135   1.2898   1.1545
 GAMMAs            1.2738   1.2802   1.3237
 SON VEL,M/SEC      777.1    730.0    541.6
 MACH NUMBER        0.000    1.000    2.757

 PERFORMANCE PARAMETERS

 Ae/At                     1.00000   4.0000
 CSTAR, M/SEC               1038.3   1038.3
 CF                         0.7031   1.4383
 Ivac, M/SEC                1300.2   1641.8
 Isp, M/SEC                  730.0   1493.4

 MASS FRACTIONS

 *CO2            0.12676   H2O             0.04404   *NO             0.00240
 NO2             0.00009   *N2             0.61018   *OH             0.00006
 *O2             0.21647

  * THERMODYNAMIC PROPERTIES FITTED TO 20000.K

 NOTE. WEIGHT FRACTION OF FUEL IN TOTAL FUELS AND OF OXIDANT IN TOTAL OXIDANTS

           THEORETICAL ROCKET PERFORMANCE ASSUMING FROZEN COMPOSITION

 Pin =   940.5 PSIA
 CASE = _______________

             REACTANT                    WT FRACTION      ENERGY      TEMP
                                          (SEE NOTE)     KJ/KG-MOL      K  
 FUEL        paraffin                     1.0000000  -1860600.000    298.150
 OXIDANT     N2O                          1.0000000         0.000      0.000

 O/F=   24.30000  %FUEL=  3.952569  R,EQ.RATIO= 0.376071  PHI,EQ.RATIO= 0.376071

                 CHAMBER   THROAT     EXIT
 Pinf/P            1.0000   1.8208   27.985
 P, BAR            64.848   35.615   2.3172
 T, K             1678.99  1474.36   784.96
 RHO, KG/CU M    1.3680 1 8.5559 0 1.0456 0
 H, KJ/KG         -73.412  -339.86 -1188.50
 U, KJ/KG         -547.45  -756.12 -1410.12
 G, KJ/KG        -13083.1 -11764.0 -7270.77
 S, KJ/(KG)(K)     7.7485   7.7485   7.7485

 M, (1/n)          29.449   29.449   29.449
 Cp, KJ/(KG)(K)    1.3135   1.2898   1.1545
 GAMMAs            1.2738   1.2802   1.3237
 SON VEL,M/SEC      777.1    730.0    541.6
 MACH NUMBER        0.000    1.000    2.757

 PERFORMANCE PARAMETERS

 Ae/At                      1.0000   4.0000
 CSTAR, M/SEC               1038.3   1038.3
 CF                         0.7031   1.4383
 Ivac, M/SEC                1300.2   1641.8
 Isp, M/SEC                  730.0   1493.4

 MASS FRACTIONS

 *CO2            0.12676   H2O             0.04404   *NO             0.00240
 NO2             0.00010   *N2             0.61018   *OH             0.00006
 *O2             0.21647

  * THERMODYNAMIC PROPERTIES FITTED TO 20000.K

 NOTE. WEIGHT FRACTION OF FUEL IN TOTAL FUELS AND OF OXIDANT IN TOTAL OXIDANTS

           THEORETICAL ROCKET PERFORMANCE ASSUMING FROZEN COMPOSITION

 Pin =   955.2 PSIA
 CASE = _______________

             REACTANT                    WT FRACTION      ENERGY      TEMP
                                          (SEE NOTE)     KJ/KG-MOL      K  
 FUEL        paraffin                     1.0000000  -1860600.000    298.150
 OXIDANT     N2O                          1.0000000         0.000      0.000

 O/F=   24.30000  %FUEL=  3.952569  R,EQ.RATIO= 0.376071  PHI,EQ.RATIO= 0.376071

                 CHAMBER   THROAT     EXIT
 Pinf/P            1.0000   1.8208   27.985
 P, BAR            65.861   36.171   2.3534
 T, K             1678.99  1474.36   784.96
 RHO, KG/CU M    1.3894 1 8.6895 0 1.0619 0
 H, KJ/KG         -73.412  -339.86 -1188.50
 U, KJ/KG         -547.45  -756.12 -1410.12
 G, KJ/KG        -13075.8 -11757.5 -7267.34
 S, KJ/(KG)(K)     7.7442   7.7442   7.7442

 M, (1/n)          29.449   29.449   29.449
 Cp, KJ/(KG)(K)    1.3135   1.2898   1.1545
 GAMMAs            1.2738   1.2802   1.3237
 SON VEL,M/SEC      777.1    730.0    541.6
 MACH NUMBER        0.000    1.000    2.757

 PERFORMANCE PARAMETERS

 Ae/At                      1.0000   4.0000
 CSTAR, M/SEC               1038.3   1038.3
 CF                         0.7031   1.4383
 Ivac, M/SEC                1300.2   1641.8
 Isp, M/SEC                  730.0   1493.4

 MASS FRACTIONS

 *CO2            0.12676   H2O             0.04404   *NO             0.00240
 NO2             0.00010   *N2             0.61018   *OH             0.00006
 *O2             0.21647

  * THERMODYNAMIC PROPERTIES FITTED TO 20000.K

 NOTE. WEIGHT FRACTION OF FUEL IN TOTAL FUELS AND OF OXIDANT IN TOTAL OXIDANTS

           THEORETICAL ROCKET PERFORMANCE ASSUMING FROZEN COMPOSITION

 Pin =   969.9 PSIA
 CASE = _______________

             REACTANT                    WT FRACTION      ENERGY      TEMP
                                          (SEE NOTE)     KJ/KG-MOL      K  
 FUEL        paraffin                     1.0000000  -1860600.000    298.150
 OXIDANT     N2O                          1.0000000         0.000      0.000

 O/F=   24.30000  %FUEL=  3.952569  R,EQ.RATIO= 0.376071  PHI,EQ.RATIO= 0.376071

                 CHAMBER   THROAT     EXIT
 Pinf/P            1.0000   1.8208   27.985
 P, BAR            66.874   36.728   2.3896
 T, K             1678.99  1474.36   784.96
 RHO, KG/CU M    1.4107 1 8.8232 0 1.0782 0
 H, KJ/KG         -73.412  -339.86 -1188.50
 U, KJ/KG         -547.45  -756.12 -1410.12
 G, KJ/KG        -13068.5 -11751.2 -7263.97
 S, KJ/(KG)(K)     7.7399   7.7399   7.7399

 M, (1/n)          29.449   29.449   29.449
 Cp, KJ/(KG)(K)    1.3135   1.2898   1.1545
 GAMMAs            1.2738   1.2802   1.3237
 SON VEL,M/SEC      777.1    730.0    541.6
 MACH NUMBER        0.000    1.000    2.757

 PERFORMANCE PARAMETERS

 Ae/At                      1.0000   4.0000
 CSTAR, M/SEC               1038.3   1038.3
 CF                         0.7031   1.4383
 Ivac, M/SEC                1300.2   1641.8
 Isp, M/SEC                  730.0   1493.4

 MASS FRACTIONS

 *CO2            0.12676   H2O             0.04404   *NO             0.00240
 NO2             0.00010   *N2             0.61018   *OH             0.00006
 *O2             0.21647

  * THERMODYNAMIC PROPERTIES FITTED TO 20000.K

 NOTE. WEIGHT FRACTION OF FUEL IN TOTAL FUELS AND OF OXIDANT IN TOTAL OXIDANTS

           THEORETICAL ROCKET PERFORMANCE ASSUMING FROZEN COMPOSITION

 Pin =   984.6 PSIA
 CASE = _______________

             REACTANT                    WT FRACTION      ENERGY      TEMP
                                          (SEE NOTE)     KJ/KG-MOL      K  
 FUEL        paraffin                     1.0000000  -1860600.000    298.150
 OXIDANT     N2O                          1.0000000         0.000      0.000

 O/F=   24.30000  %FUEL=  3.952569  R,EQ.RATIO= 0.376071  PHI,EQ.RATIO= 0.376071

                 CHAMBER   THROAT     EXIT
 Pinf/P            1.0000   1.8208   27.985
 P, BAR            67.888   37.284   2.4258
 T, K             1678.99  1474.36   784.96
 RHO, KG/CU M    1.4321 1 8.9569 0 1.0946 0
 H, KJ/KG         -73.412  -339.86 -1188.50
 U, KJ/KG         -547.45  -756.12 -1410.12
 G, KJ/KG        -13061.4 -11744.9 -7260.64
 S, KJ/(KG)(K)     7.7356   7.7356   7.7356

 M, (1/n)          29.449   29.449   29.449
 Cp, KJ/(KG)(K)    1.3135   1.2898   1.1545
 GAMMAs            1.2738   1.2802   1.3237
 SON VEL,M/SEC      777.1    730.0    541.6
 MACH NUMBER        0.000    1.000    2.757

 PERFORMANCE PARAMETERS

 Ae/At                      1.0000   4.0000
 CSTAR, M/SEC               1038.3   1038.3
 CF                         0.7031   1.4383
 Ivac, M/SEC                1300.2   1641.8
 Isp, M/SEC                  730.0   1493.4

 MASS FRACTIONS

 *CO2            0.12676   H2O             0.04404   *NO             0.00240
 NO2             0.00010   *N2             0.61018   *OH             0.00006
 *O2             0.21647

  * THERMODYNAMIC PROPERTIES FITTED TO 20000.K

 NOTE. WEIGHT FRACTION OF FUEL IN TOTAL FUELS AND OF OXIDANT IN TOTAL OXIDANTS

           THEORETICAL ROCKET PERFORMANCE ASSUMING FROZEN COMPOSITION

 Pin =   999.3 PSIA
 CASE = _______________

             REACTANT                    WT FRACTION      ENERGY      TEMP
                                          (SEE NOTE)     KJ/KG-MOL      K  
 FUEL        paraffin                     1.0000000  -1860600.000    298.150
 OXIDANT     N2O                          1.0000000         0.000      0.000

 O/F=   24.30000  %FUEL=  3.952569  R,EQ.RATIO= 0.376071  PHI,EQ.RATIO= 0.376071

                 CHAMBER   THROAT     EXIT
 Pinf/P            1.0000   1.8208   27.985
 P, BAR            68.901   37.841   2.4620
 T, K             1678.99  1474.36   784.96
 RHO, KG/CU M    1.4535 1 9.0906 0 1.1109 0
 H, KJ/KG         -73.412  -339.86 -1188.50
 U, KJ/KG         -547.45  -756.12 -1410.12
 G, KJ/KG        -13054.4 -11738.8 -7257.37
 S, KJ/(KG)(K)     7.7314   7.7314   7.7314

 M, (1/n)          29.449   29.449   29.449
 Cp, KJ/(KG)(K)    1.3135   1.2898   1.1545
 GAMMAs            1.2738   1.2802   1.3237
 SON VEL,M/SEC      777.1    730.0    541.6
 MACH NUMBER        0.000    1.000    2.757

 PERFORMANCE PARAMETERS

 Ae/At                      1.0000   4.0000
 CSTAR, M/SEC               1038.3   1038.3
 CF                         0.7031   1.4383
 Ivac, M/SEC                1300.2   1641.8
 Isp, M/SEC                  730.0   1493.4

 MASS FRACTIONS

 *CO2            0.12676   H2O             0.04404   *NO             0.00240
 NO2             0.00010   *N2             0.61018   *OH             0.00006
 *O2             0.21647

  * THERMODYNAMIC PROPERTIES FITTED TO 20000.K

 NOTE. WEIGHT FRACTION OF FUEL IN TOTAL FUELS AND OF OXIDANT IN TOTAL OXIDANTS

           THEORETICAL ROCKET PERFORMANCE ASSUMING FROZEN COMPOSITION

 Pin =  1014.0 PSIA
 CASE = _______________

             REACTANT                    WT FRACTION      ENERGY      TEMP
                                          (SEE NOTE)     KJ/KG-MOL      K  
 FUEL        paraffin                     1.0000000  -1860600.000    298.150
 OXIDANT     N2O                          1.0000000         0.000      0.000

 O/F=   24.30000  %FUEL=  3.952569  R,EQ.RATIO= 0.376071  PHI,EQ.RATIO= 0.376071

                 CHAMBER   THROAT     EXIT
 Pinf/P            1.0000   1.8208   27.985
 P, BAR            69.914   38.397   2.4983
 T, K             1678.99  1474.36   784.96
 RHO, KG/CU M    1.4749 1 9.2243 0 1.1273 0
 H, KJ/KG         -73.412  -339.86 -1188.50
 U, KJ/KG         -547.45  -756.12 -1410.12
 G, KJ/KG        -13047.5 -11732.7 -7254.14
 S, KJ/(KG)(K)     7.7273   7.7273   7.7273

 M, (1/n)          29.449   29.449   29.449
 Cp, KJ/(KG)(K)    1.3135   1.2898   1.1545
 GAMMAs            1.2738   1.2802   1.3237
 SON VEL,M/SEC      777.1    730.0    541.6
 MACH NUMBER        0.000    1.000    2.757

 PERFORMANCE PARAMETERS

 Ae/At                      1.0000   4.0000
 CSTAR, M/SEC               1038.3   1038.3
 CF                         0.7031   1.4383
 Ivac, M/SEC                1300.2   1641.8
 Isp, M/SEC                  730.0   1493.4

 MASS FRACTIONS

 *CO2            0.12676   H2O             0.04404   *NO             0.00240
 NO2             0.00010   *N2             0.61018   *OH             0.00006
 *O2             0.21647

  * THERMODYNAMIC PROPERTIES FITTED TO 20000.K

 NOTE. WEIGHT FRACTION OF FUEL IN TOTAL FUELS AND OF OXIDANT IN TOTAL OXIDANTS

           THEORETICAL ROCKET PERFORMANCE ASSUMING FROZEN COMPOSITION

 Pin =  1028.7 PSIA
 CASE = _______________

             REACTANT                    WT FRACTION      ENERGY      TEMP
                                          (SEE NOTE)     KJ/KG-MOL      K  
 FUEL        paraffin                     1.0000000  -1860600.000    298.150
 OXIDANT     N2O                          1.0000000         0.000      0.000

 O/F=   24.30000  %FUEL=  3.952569  R,EQ.RATIO= 0.376071  PHI,EQ.RATIO= 0.376071

                 CHAMBER   THROAT     EXIT
 Pinf/P            1.0000   1.8208   27.985
 P, BAR            70.927   38.954   2.5345
 T, K             1678.99  1474.36   784.96
 RHO, KG/CU M    1.4962 1 9.3579 0 1.1436 0
 H, KJ/KG         -73.412  -339.86 -1188.50
 U, KJ/KG         -547.45  -756.12 -1410.13
 G, KJ/KG        -13040.7 -11726.7 -7250.96
 S, KJ/(KG)(K)     7.7232   7.7232   7.7232

 M, (1/n)          29.449   29.449   29.449
 Cp, KJ/(KG)(K)    1.3135   1.2898   1.1545
 GAMMAs            1.2738   1.2802   1.3237
 SON VEL,M/SEC      777.1    730.0    541.6
 MACH NUMBER        0.000    1.000    2.757

 PERFORMANCE PARAMETERS

 Ae/At                      1.0000   4.0000
 CSTAR, M/SEC               1038.3   1038.3
 CF                         0.7031   1.4383
 Ivac, M/SEC                1300.2   1641.8
 Isp, M/SEC                  730.0   1493.4

 MASS FRACTIONS

 *CO2            0.12676   H2O             0.04404   *NO             0.00240
 NO2             0.00010   *N2             0.61018   *OH             0.00006
 *O2             0.21647

  * THERMODYNAMIC PROPERTIES FITTED TO 20000.K

 NOTE. WEIGHT FRACTION OF FUEL IN TOTAL FUELS AND OF OXIDANT IN TOTAL OXIDANTS

           THEORETICAL ROCKET PERFORMANCE ASSUMING FROZEN COMPOSITION

 Pin =  1043.4 PSIA
 CASE = _______________

             REACTANT                    WT FRACTION      ENERGY      TEMP
                                          (SEE NOTE)     KJ/KG-MOL      K  
 FUEL        paraffin                     1.0000000  -1860600.000    298.150
 OXIDANT     N2O                          1.0000000         0.000      0.000

 O/F=   24.30000  %FUEL=  3.952569  R,EQ.RATIO= 0.376071  PHI,EQ.RATIO= 0.376071

                 CHAMBER   THROAT     EXIT
 Pinf/P            1.0000   1.8208   27.985
 P, BAR            71.941   39.510   2.5707
 T, K             1678.99  1474.36   784.96
 RHO, KG/CU M    1.5176 1 9.4916 0 1.1599 0
 H, KJ/KG         -73.412  -339.86 -1188.50
 U, KJ/KG         -547.45  -756.13 -1410.13
 G, KJ/KG        -13034.0 -11720.8 -7247.83
 S, KJ/(KG)(K)     7.7192   7.7192   7.7192

 M, (1/n)          29.449   29.449   29.449
 Cp, KJ/(KG)(K)    1.3135   1.2898   1.1545
 GAMMAs            1.2738   1.2802   1.3237
 SON VEL,M/SEC      777.1    730.0    541.6
 MACH NUMBER        0.000    1.000    2.757

 PERFORMANCE PARAMETERS

 Ae/At                      1.0000   4.0000
 CSTAR, M/SEC               1038.3   1038.3
 CF                         0.7031   1.4383
 Ivac, M/SEC                1300.2   1641.8
 Isp, M/SEC                  730.0   1493.4

 MASS FRACTIONS

 *CO2            0.12676   H2O             0.04404   *NO             0.00240
 NO2             0.00010   *N2             0.61018   *OH             0.00006
 *O2             0.21646

  * THERMODYNAMIC PROPERTIES FITTED TO 20000.K

 NOTE. WEIGHT FRACTION OF FUEL IN TOTAL FUELS AND OF OXIDANT IN TOTAL OXIDANTS

           THEORETICAL ROCKET PERFORMANCE ASSUMING FROZEN COMPOSITION

 Pin =  1058.1 PSIA
 CASE = _______________

             REACTANT                    WT FRACTION      ENERGY      TEMP
                                          (SEE NOTE)     KJ/KG-MOL      K  
 FUEL        paraffin                     1.0000000  -1860600.000    298.150
 OXIDANT     N2O                          1.0000000         0.000      0.000

 O/F=   24.30000  %FUEL=  3.952569  R,EQ.RATIO= 0.376071  PHI,EQ.RATIO= 0.376071

                 CHAMBER   THROAT     EXIT
 Pinf/P            1.0000   1.8208   27.985
 P, BAR            72.954   40.067   2.6069
 T, K             1679.00  1474.37   784.96
 RHO, KG/CU M    1.5390 1 9.6253 0 1.1763 0
 H, KJ/KG         -73.412  -339.86 -1188.50
 U, KJ/KG         -547.45  -756.13 -1410.13
 G, KJ/KG        -13027.3 -11715.0 -7244.73
 S, KJ/(KG)(K)     7.7153   7.7153   7.7153

 M, (1/n)          29.449   29.449   29.449
 Cp, KJ/(KG)(K)    1.3135   1.2898   1.1545
 GAMMAs            1.2738   1.2802   1.3237
 SON VEL,M/SEC      777.1    730.0    541.6
 MACH NUMBER        0.000    1.000    2.757

 PERFORMANCE PARAMETERS

 Ae/At                      1.0000   4.0000
 CSTAR, M/SEC               1038.3   1038.3
 CF                         0.7031   1.4383
 Ivac, M/SEC                1300.2   1641.8
 Isp, M/SEC                  730.0   1493.4

 MASS FRACTIONS

 *CO2            0.12676   H2O             0.04404   *NO             0.00240
 NO2             0.00010   *N2             0.61017   *OH             0.00006
 *O2             0.21646

  * THERMODYNAMIC PROPERTIES FITTED TO 20000.K

 NOTE. WEIGHT FRACTION OF FUEL IN TOTAL FUELS AND OF OXIDANT IN TOTAL OXIDANTS

           THEORETICAL ROCKET PERFORMANCE ASSUMING FROZEN COMPOSITION

 Pin =   720.1 PSIA
 CASE = _______________

             REACTANT                    WT FRACTION      ENERGY      TEMP
                                          (SEE NOTE)     KJ/KG-MOL      K  
 FUEL        paraffin                     1.0000000  -1860600.000    298.150
 OXIDANT     N2O                          1.0000000         0.000      0.000

 O/F=   24.50000  %FUEL=  3.921569  R,EQ.RATIO= 0.373001  PHI,EQ.RATIO= 0.373001

                 CHAMBER   THROAT     EXIT
 Pinf/P            1.0000   1.8211   28.020
 P, BAR            49.649   27.263   1.7720
 T, K             1669.85  1466.03   779.54
 RHO, KG/CU M    1.0531 1 6.5865 0 8.0507-1
 H, KJ/KG         -72.836  -337.89 -1181.64
 U, KJ/KG         -544.31  -751.82 -1401.74
 G, KJ/KG        -13123.8 -11795.9 -7274.28
 S, KJ/(KG)(K)     7.8157   7.8157   7.8157

 M, (1/n)          29.448   29.448   29.448
 Cp, KJ/(KG)(K)    1.3119   1.2881   1.1525
 GAMMAs            1.2742   1.2807   1.3245
 SON VEL,M/SEC      775.1    728.1    539.9
 MACH NUMBER        0.000    1.000    2.758

 PERFORMANCE PARAMETERS

 Ae/At                      1.0000   4.0000
 CSTAR, M/SEC               1035.3   1035.3
 CF                         0.7032   1.4384
 Ivac, M/SEC                1296.6   1637.0
 Isp, M/SEC                  728.1   1489.2

 MASS FRACTIONS

 *CO2            0.12576   H2O             0.04369   *NO             0.00232
 NO2             0.00008   *N2             0.61041   *OH             0.00006
 *O2             0.21766

  * THERMODYNAMIC PROPERTIES FITTED TO 20000.K

 NOTE. WEIGHT FRACTION OF FUEL IN TOTAL FUELS AND OF OXIDANT IN TOTAL OXIDANTS

           THEORETICAL ROCKET PERFORMANCE ASSUMING FROZEN COMPOSITION

 Pin =   734.8 PSIA
 CASE = _______________

             REACTANT                    WT FRACTION      ENERGY      TEMP
                                          (SEE NOTE)     KJ/KG-MOL      K  
 FUEL        paraffin                     1.0000000  -1860600.000    298.150
 OXIDANT     N2O                          1.0000000         0.000      0.000

 O/F=   24.50000  %FUEL=  3.921569  R,EQ.RATIO= 0.373001  PHI,EQ.RATIO= 0.373001

                 CHAMBER   THROAT     EXIT
 Pinf/P            1.0000   1.8211   28.019
 P, BAR            50.663   27.819   1.8081
 T, K             1669.85  1466.03   779.54
 RHO, KG/CU M    1.0746 1 6.7209 0 8.2150-1
 H, KJ/KG         -72.836  -337.89 -1181.64
 U, KJ/KG         -544.31  -751.82 -1401.74
 G, KJ/KG        -13114.3 -11787.5 -7269.84
 S, KJ/(KG)(K)     7.8100   7.8100   7.8100

 M, (1/n)          29.448   29.448   29.448
 Cp, KJ/(KG)(K)    1.3119   1.2881   1.1525
 GAMMAs            1.2742   1.2807   1.3245
 SON VEL,M/SEC      775.1    728.1    539.9
 MACH NUMBER        0.000    1.000    2.758

 PERFORMANCE PARAMETERS

 Ae/At                      1.0000   4.0000
 CSTAR, M/SEC               1035.3   1035.3
 CF                         0.7032   1.4384
 Ivac, M/SEC                1296.6   1637.0
 Isp, M/SEC                  728.1   1489.2

 MASS FRACTIONS

 *CO2            0.12576   H2O             0.04369   *NO             0.00232
 NO2             0.00008   *N2             0.61041   *OH             0.00006
 *O2             0.21766

  * THERMODYNAMIC PROPERTIES FITTED TO 20000.K

 NOTE. WEIGHT FRACTION OF FUEL IN TOTAL FUELS AND OF OXIDANT IN TOTAL OXIDANTS

           THEORETICAL ROCKET PERFORMANCE ASSUMING FROZEN COMPOSITION

 Pin =   749.5 PSIA
 CASE = _______________

             REACTANT                    WT FRACTION      ENERGY      TEMP
                                          (SEE NOTE)     KJ/KG-MOL      K  
 FUEL        paraffin                     1.0000000  -1860600.000    298.150
 OXIDANT     N2O                          1.0000000         0.000      0.000

 O/F=   24.50000  %FUEL=  3.921569  R,EQ.RATIO= 0.373001  PHI,EQ.RATIO= 0.373001

                 CHAMBER   THROAT     EXIT
 Pinf/P            1.0000   1.8211   28.019
 P, BAR            51.676   28.376   1.8443
 T, K             1669.86  1466.03   779.54
 RHO, KG/CU M    1.0960 1 6.8553 0 8.3793-1
 H, KJ/KG         -72.836  -337.89 -1181.64
 U, KJ/KG         -544.31  -751.82 -1401.74
 G, KJ/KG        -13105.0 -11779.3 -7265.50
 S, KJ/(KG)(K)     7.8044   7.8044   7.8044

 M, (1/n)          29.448   29.448   29.448
 Cp, KJ/(KG)(K)    1.3119   1.2881   1.1525
 GAMMAs            1.2742   1.2807   1.3245
 SON VEL,M/SEC      775.1    728.1    539.9
 MACH NUMBER        0.000    1.000    2.758

 PERFORMANCE PARAMETERS

 Ae/At                     1.00000   4.0000
 CSTAR, M/SEC               1035.3   1035.3
 CF                         0.7032   1.4384
 Ivac, M/SEC                1296.6   1637.0
 Isp, M/SEC                  728.1   1489.2

 MASS FRACTIONS

 *CO2            0.12576   H2O             0.04369   *NO             0.00232
 NO2             0.00008   *N2             0.61041   *OH             0.00006
 *O2             0.21766

  * THERMODYNAMIC PROPERTIES FITTED TO 20000.K

 NOTE. WEIGHT FRACTION OF FUEL IN TOTAL FUELS AND OF OXIDANT IN TOTAL OXIDANTS

           THEORETICAL ROCKET PERFORMANCE ASSUMING FROZEN COMPOSITION

 Pin =   764.2 PSIA
 CASE = _______________

             REACTANT                    WT FRACTION      ENERGY      TEMP
                                          (SEE NOTE)     KJ/KG-MOL      K  
 FUEL        paraffin                     1.0000000  -1860600.000    298.150
 OXIDANT     N2O                          1.0000000         0.000      0.000

 O/F=   24.50000  %FUEL=  3.921569  R,EQ.RATIO= 0.373001  PHI,EQ.RATIO= 0.373001

                 CHAMBER   THROAT     EXIT
 Pinf/P            1.0000   1.8211   28.019
 P, BAR            52.689   28.932   1.8804
 T, K             1669.86  1466.03   779.55
 RHO, KG/CU M    1.1175 1 6.9897 0 8.5436-1
 H, KJ/KG         -72.836  -337.89 -1181.64
 U, KJ/KG         -544.31  -751.82 -1401.74
 G, KJ/KG        -13095.9 -11771.3 -7261.23
 S, KJ/(KG)(K)     7.7989   7.7989   7.7989

 M, (1/n)          29.448   29.448   29.448
 Cp, KJ/(KG)(K)    1.3119   1.2881   1.1525
 GAMMAs            1.2742   1.2807   1.3245
 SON VEL,M/SEC      775.1    728.1    539.9
 MACH NUMBER        0.000    1.000    2.758

 PERFORMANCE PARAMETERS

 Ae/At                      1.0000   4.0000
 CSTAR, M/SEC               1035.3   1035.3
 CF                         0.7032   1.4384
 Ivac, M/SEC                1296.6   1637.0
 Isp, M/SEC                  728.1   1489.2

 MASS FRACTIONS

 *CO2            0.12576   H2O             0.04369   *NO             0.00232
 NO2             0.00009   *N2             0.61041   *OH             0.00006
 *O2             0.21766

  * THERMODYNAMIC PROPERTIES FITTED TO 20000.K

 NOTE. WEIGHT FRACTION OF FUEL IN TOTAL FUELS AND OF OXIDANT IN TOTAL OXIDANTS

           THEORETICAL ROCKET PERFORMANCE ASSUMING FROZEN COMPOSITION

 Pin =   778.9 PSIA
 CASE = _______________

             REACTANT                    WT FRACTION      ENERGY      TEMP
                                          (SEE NOTE)     KJ/KG-MOL      K  
 FUEL        paraffin                     1.0000000  -1860600.000    298.150
 OXIDANT     N2O                          1.0000000         0.000      0.000

 O/F=   24.50000  %FUEL=  3.921569  R,EQ.RATIO= 0.373001  PHI,EQ.RATIO= 0.373001

                 CHAMBER   THROAT     EXIT
 Pinf/P            1.0000   1.8211   28.019
 P, BAR            53.702   29.489   1.9166
 T, K             1669.86  1466.03   779.55
 RHO, KG/CU M    1.1390 1 7.1241 0 8.7079-1
 H, KJ/KG         -72.836  -337.89 -1181.65
 U, KJ/KG         -544.31  -751.82 -1401.75
 G, KJ/KG        -13086.9 -11763.4 -7257.05
 S, KJ/(KG)(K)     7.7935   7.7935   7.7935

 M, (1/n)          29.448   29.448   29.448
 Cp, KJ/(KG)(K)    1.3119   1.2881   1.1525
 GAMMAs            1.2742   1.2807   1.3245
 SON VEL,M/SEC      775.1    728.1    539.9
 MACH NUMBER        0.000    1.000    2.758

 PERFORMANCE PARAMETERS

 Ae/At                      1.0000   4.0000
 CSTAR, M/SEC               1035.3   1035.3
 CF                         0.7032   1.4384
 Ivac, M/SEC                1296.6   1637.0
 Isp, M/SEC                  728.1   1489.2

 MASS FRACTIONS

 *CO2            0.12576   H2O             0.04369   *NO             0.00232
 NO2             0.00009   *N2             0.61041   *OH             0.00006
 *O2             0.21766

  * THERMODYNAMIC PROPERTIES FITTED TO 20000.K

 NOTE. WEIGHT FRACTION OF FUEL IN TOTAL FUELS AND OF OXIDANT IN TOTAL OXIDANTS

           THEORETICAL ROCKET PERFORMANCE ASSUMING FROZEN COMPOSITION

 Pin =   793.6 PSIA
 CASE = _______________

             REACTANT                    WT FRACTION      ENERGY      TEMP
                                          (SEE NOTE)     KJ/KG-MOL      K  
 FUEL        paraffin                     1.0000000  -1860600.000    298.150
 OXIDANT     N2O                          1.0000000         0.000      0.000

 O/F=   24.50000  %FUEL=  3.921569  R,EQ.RATIO= 0.373001  PHI,EQ.RATIO= 0.373001

                 CHAMBER   THROAT     EXIT
 Pinf/P            1.0000   1.8211   28.019
 P, BAR            54.715   30.045   1.9528
 T, K             1669.86  1466.04   779.55
 RHO, KG/CU M    1.1605 1 7.2585 0 8.8722-1
 H, KJ/KG         -72.836  -337.89 -1181.65
 U, KJ/KG         -544.31  -751.82 -1401.75
 G, KJ/KG        -13078.1 -11755.7 -7252.95
 S, KJ/(KG)(K)     7.7882   7.7882   7.7882

 M, (1/n)          29.448   29.448   29.448
 Cp, KJ/(KG)(K)    1.3119   1.2881   1.1525
 GAMMAs            1.2742   1.2807   1.3245
 SON VEL,M/SEC      775.1    728.1    539.9
 MACH NUMBER        0.000    1.000    2.758

 PERFORMANCE PARAMETERS

 Ae/At                      1.0000   4.0000
 CSTAR, M/SEC               1035.3   1035.3
 CF                         0.7032   1.4384
 Ivac, M/SEC                1296.6   1637.0
 Isp, M/SEC                  728.1   1489.2

 MASS FRACTIONS

 *CO2            0.12576   H2O             0.04369   *NO             0.00232
 NO2             0.00009   *N2             0.61041   *OH             0.00006
 *O2             0.21766

  * THERMODYNAMIC PROPERTIES FITTED TO 20000.K

 NOTE. WEIGHT FRACTION OF FUEL IN TOTAL FUELS AND OF OXIDANT IN TOTAL OXIDANTS

           THEORETICAL ROCKET PERFORMANCE ASSUMING FROZEN COMPOSITION

 Pin =   808.3 PSIA
 CASE = _______________

             REACTANT                    WT FRACTION      ENERGY      TEMP
                                          (SEE NOTE)     KJ/KG-MOL      K  
 FUEL        paraffin                     1.0000000  -1860600.000    298.150
 OXIDANT     N2O                          1.0000000         0.000      0.000

 O/F=   24.50000  %FUEL=  3.921569  R,EQ.RATIO= 0.373001  PHI,EQ.RATIO= 0.373001

                 CHAMBER   THROAT     EXIT
 Pinf/P            1.0000   1.8211   28.019
 P, BAR            55.729   30.601   1.9889
 T, K             1669.86  1466.04   779.55
 RHO, KG/CU M    1.1820 1 7.3929 0 9.0365-1
 H, KJ/KG         -72.836  -337.89 -1181.65
 U, KJ/KG         -544.31  -751.82 -1401.75
 G, KJ/KG        -13069.5 -11748.1 -7248.92
 S, KJ/(KG)(K)     7.7830   7.7830   7.7830

 M, (1/n)          29.448   29.448   29.448
 Cp, KJ/(KG)(K)    1.3119   1.2881   1.1525
 GAMMAs            1.2742   1.2807   1.3245
 SON VEL,M/SEC      775.1    728.1    539.9
 MACH NUMBER        0.000    1.000    2.758

 PERFORMANCE PARAMETERS

 Ae/At                      1.0000   4.0000
 CSTAR, M/SEC               1035.3   1035.3
 CF                         0.7032   1.4384
 Ivac, M/SEC                1296.6   1637.0
 Isp, M/SEC                  728.1   1489.2

 MASS FRACTIONS

 *CO2            0.12576   H2O             0.04369   *NO             0.00232
 NO2             0.00009   *N2             0.61041   *OH             0.00006
 *O2             0.21766

  * THERMODYNAMIC PROPERTIES FITTED TO 20000.K

 NOTE. WEIGHT FRACTION OF FUEL IN TOTAL FUELS AND OF OXIDANT IN TOTAL OXIDANTS

           THEORETICAL ROCKET PERFORMANCE ASSUMING FROZEN COMPOSITION

 Pin =   823.0 PSIA
 CASE = _______________

             REACTANT                    WT FRACTION      ENERGY      TEMP
                                          (SEE NOTE)     KJ/KG-MOL      K  
 FUEL        paraffin                     1.0000000  -1860600.000    298.150
 OXIDANT     N2O                          1.0000000         0.000      0.000

 O/F=   24.50000  %FUEL=  3.921569  R,EQ.RATIO= 0.373001  PHI,EQ.RATIO= 0.373001

                 CHAMBER   THROAT     EXIT
 Pinf/P            1.0000   1.8211   28.019
 P, BAR            56.742   31.158   2.0251
 T, K             1669.86  1466.04   779.55
 RHO, KG/CU M    1.2035 1 7.5274 0 9.2007-1
 H, KJ/KG         -72.836  -337.89 -1181.65
 U, KJ/KG         -544.31  -751.82 -1401.75
 G, KJ/KG        -13061.0 -11740.7 -7244.96
 S, KJ/(KG)(K)     7.7780   7.7780   7.7780

 M, (1/n)          29.448   29.448   29.448
 Cp, KJ/(KG)(K)    1.3119   1.2881   1.1525
 GAMMAs            1.2742   1.2807   1.3245
 SON VEL,M/SEC      775.1    728.1    539.9
 MACH NUMBER        0.000    1.000    2.758

 PERFORMANCE PARAMETERS

 Ae/At                      1.0000   4.0000
 CSTAR, M/SEC               1035.3   1035.3
 CF                         0.7032   1.4384
 Ivac, M/SEC                1296.6   1637.0
 Isp, M/SEC                  728.1   1489.2

 MASS FRACTIONS

 *CO2            0.12576   H2O             0.04369   *NO             0.00232
 NO2             0.00009   *N2             0.61041   *OH             0.00006
 *O2             0.21766

  * THERMODYNAMIC PROPERTIES FITTED TO 20000.K

 NOTE. WEIGHT FRACTION OF FUEL IN TOTAL FUELS AND OF OXIDANT IN TOTAL OXIDANTS

           THEORETICAL ROCKET PERFORMANCE ASSUMING FROZEN COMPOSITION

 Pin =   837.7 PSIA
 CASE = _______________

             REACTANT                    WT FRACTION      ENERGY      TEMP
                                          (SEE NOTE)     KJ/KG-MOL      K  
 FUEL        paraffin                     1.0000000  -1860600.000    298.150
 OXIDANT     N2O                          1.0000000         0.000      0.000

 O/F=   24.50000  %FUEL=  3.921569  R,EQ.RATIO= 0.373001  PHI,EQ.RATIO= 0.373001

                 CHAMBER   THROAT     EXIT
 Pinf/P            1.0000   1.8211   28.019
 P, BAR            57.755   31.714   2.0613
 T, K             1669.87  1466.04   779.55
 RHO, KG/CU M    1.2250 1 7.6618 0 9.3650-1
 H, KJ/KG         -72.836  -337.89 -1181.65
 U, KJ/KG         -544.31  -751.82 -1401.75
 G, KJ/KG        -13052.6 -11733.4 -7241.08
 S, KJ/(KG)(K)     7.7730   7.7730   7.7730

 M, (1/n)          29.448   29.448   29.448
 Cp, KJ/(KG)(K)    1.3119   1.2881   1.1525
 GAMMAs            1.2742   1.2807   1.3245
 SON VEL,M/SEC      775.1    728.1    539.9
 MACH NUMBER        0.000    1.000    2.758

 PERFORMANCE PARAMETERS

 Ae/At                      1.0000   4.0000
 CSTAR, M/SEC               1035.3   1035.3
 CF                         0.7032   1.4384
 Ivac, M/SEC                1296.6   1637.0
 Isp, M/SEC                  728.1   1489.2

 MASS FRACTIONS

 *CO2            0.12576   H2O             0.04369   *NO             0.00232
 NO2             0.00009   *N2             0.61041   *OH             0.00006
 *O2             0.21766

  * THERMODYNAMIC PROPERTIES FITTED TO 20000.K

 NOTE. WEIGHT FRACTION OF FUEL IN TOTAL FUELS AND OF OXIDANT IN TOTAL OXIDANTS

           THEORETICAL ROCKET PERFORMANCE ASSUMING FROZEN COMPOSITION

 Pin =   852.4 PSIA
 CASE = _______________

             REACTANT                    WT FRACTION      ENERGY      TEMP
                                          (SEE NOTE)     KJ/KG-MOL      K  
 FUEL        paraffin                     1.0000000  -1860600.000    298.150
 OXIDANT     N2O                          1.0000000         0.000      0.000

 O/F=   24.50000  %FUEL=  3.921569  R,EQ.RATIO= 0.373001  PHI,EQ.RATIO= 0.373001

                 CHAMBER   THROAT     EXIT
 Pinf/P            1.0000   1.8211   28.019
 P, BAR            58.768   32.271   2.0974
 T, K             1669.87  1466.04   779.55
 RHO, KG/CU M    1.2465 1 7.7962 0 9.5293-1
 H, KJ/KG         -72.836  -337.89 -1181.65
 U, KJ/KG         -544.31  -751.82 -1401.75
 G, KJ/KG        -13044.5 -11726.2 -7237.26
 S, KJ/(KG)(K)     7.7681   7.7681   7.7681

 M, (1/n)          29.448   29.448   29.448
 Cp, KJ/(KG)(K)    1.3119   1.2881   1.1525
 GAMMAs            1.2742   1.2807   1.3245
 SON VEL,M/SEC      775.1    728.1    539.9
 MACH NUMBER        0.000    1.000    2.758

 PERFORMANCE PARAMETERS

 Ae/At                      1.0000   4.0000
 CSTAR, M/SEC               1035.3   1035.3
 CF                         0.7032   1.4384
 Ivac, M/SEC                1296.6   1637.0
 Isp, M/SEC                  728.1   1489.2

 MASS FRACTIONS

 *CO2            0.12576   H2O             0.04369   *NO             0.00232
 NO2             0.00009   *N2             0.61041   *OH             0.00006
 *O2             0.21766

  * THERMODYNAMIC PROPERTIES FITTED TO 20000.K

 NOTE. WEIGHT FRACTION OF FUEL IN TOTAL FUELS AND OF OXIDANT IN TOTAL OXIDANTS

           THEORETICAL ROCKET PERFORMANCE ASSUMING FROZEN COMPOSITION

 Pin =   867.1 PSIA
 CASE = _______________

             REACTANT                    WT FRACTION      ENERGY      TEMP
                                          (SEE NOTE)     KJ/KG-MOL      K  
 FUEL        paraffin                     1.0000000  -1860600.000    298.150
 OXIDANT     N2O                          1.0000000         0.000      0.000

 O/F=   24.50000  %FUEL=  3.921569  R,EQ.RATIO= 0.373001  PHI,EQ.RATIO= 0.373001

                 CHAMBER   THROAT     EXIT
 Pinf/P            1.0000   1.8211   28.019
 P, BAR            59.782   32.827   2.1336
 T, K             1669.87  1466.04   779.55
 RHO, KG/CU M    1.2680 1 7.9306 0 9.6936-1
 H, KJ/KG         -72.836  -337.89 -1181.65
 U, KJ/KG         -544.31  -751.82 -1401.75
 G, KJ/KG        -13036.4 -11719.1 -7233.51
 S, KJ/(KG)(K)     7.7632   7.7632   7.7632

 M, (1/n)          29.448   29.448   29.448
 Cp, KJ/(KG)(K)    1.3119   1.2881   1.1525
 GAMMAs            1.2742   1.2807   1.3245
 SON VEL,M/SEC      775.1    728.1    539.9
 MACH NUMBER        0.000    1.000    2.758

 PERFORMANCE PARAMETERS

 Ae/At                      1.0000   4.0000
 CSTAR, M/SEC               1035.3   1035.3
 CF                         0.7032   1.4384
 Ivac, M/SEC                1296.6   1637.0
 Isp, M/SEC                  728.1   1489.2

 MASS FRACTIONS

 *CO2            0.12576   H2O             0.04369   *NO             0.00232
 NO2             0.00009   *N2             0.61041   *OH             0.00006
 *O2             0.21766

  * THERMODYNAMIC PROPERTIES FITTED TO 20000.K

 NOTE. WEIGHT FRACTION OF FUEL IN TOTAL FUELS AND OF OXIDANT IN TOTAL OXIDANTS

           THEORETICAL ROCKET PERFORMANCE ASSUMING FROZEN COMPOSITION

 Pin =   881.8 PSIA
 CASE = _______________

             REACTANT                    WT FRACTION      ENERGY      TEMP
                                          (SEE NOTE)     KJ/KG-MOL      K  
 FUEL        paraffin                     1.0000000  -1860600.000    298.150
 OXIDANT     N2O                          1.0000000         0.000      0.000

 O/F=   24.50000  %FUEL=  3.921569  R,EQ.RATIO= 0.373001  PHI,EQ.RATIO= 0.373001

                 CHAMBER   THROAT     EXIT
 Pinf/P            1.0000   1.8211   28.019
 P, BAR            60.795   33.383   2.1698
 T, K             1669.87  1466.04   779.56
 RHO, KG/CU M    1.2895 1 8.0650 0 9.8579-1
 H, KJ/KG         -72.836  -337.89 -1181.65
 U, KJ/KG         -544.31  -751.82 -1401.75
 G, KJ/KG        -13028.5 -11712.2 -7229.82
 S, KJ/(KG)(K)     7.7585   7.7585   7.7585

 M, (1/n)          29.448   29.448   29.448
 Cp, KJ/(KG)(K)    1.3119   1.2881   1.1525
 GAMMAs            1.2742   1.2807   1.3245
 SON VEL,M/SEC      775.1    728.1    539.9
 MACH NUMBER        0.000    1.000    2.758

 PERFORMANCE PARAMETERS

 Ae/At                      1.0000   4.0000
 CSTAR, M/SEC               1035.3   1035.3
 CF                         0.7032   1.4384
 Ivac, M/SEC                1296.6   1637.0
 Isp, M/SEC                  728.1   1489.2

 MASS FRACTIONS

 *CO2            0.12576   H2O             0.04369   *NO             0.00232
 NO2             0.00009   *N2             0.61041   *OH             0.00006
 *O2             0.21766

  * THERMODYNAMIC PROPERTIES FITTED TO 20000.K

 NOTE. WEIGHT FRACTION OF FUEL IN TOTAL FUELS AND OF OXIDANT IN TOTAL OXIDANTS

           THEORETICAL ROCKET PERFORMANCE ASSUMING FROZEN COMPOSITION

 Pin =   896.5 PSIA
 CASE = _______________

             REACTANT                    WT FRACTION      ENERGY      TEMP
                                          (SEE NOTE)     KJ/KG-MOL      K  
 FUEL        paraffin                     1.0000000  -1860600.000    298.150
 OXIDANT     N2O                          1.0000000         0.000      0.000

 O/F=   24.50000  %FUEL=  3.921569  R,EQ.RATIO= 0.373001  PHI,EQ.RATIO= 0.373001

                 CHAMBER   THROAT     EXIT
 Pinf/P            1.0000   1.8211   28.019
 P, BAR            61.808   33.940   2.2059
 T, K             1669.87  1466.05   779.56
 RHO, KG/CU M    1.3109 1 8.1994 0 1.0022 0
 H, KJ/KG         -72.836  -337.89 -1181.65
 U, KJ/KG         -544.31  -751.82 -1401.75
 G, KJ/KG        -13020.7 -11705.3 -7226.19
 S, KJ/(KG)(K)     7.7538   7.7538   7.7538

 M, (1/n)          29.448   29.448   29.448
 Cp, KJ/(KG)(K)    1.3119   1.2881   1.1525
 GAMMAs            1.2742   1.2807   1.3245
 SON VEL,M/SEC      775.1    728.1    539.9
 MACH NUMBER        0.000    1.000    2.758

 PERFORMANCE PARAMETERS

 Ae/At                      1.0000   4.0000
 CSTAR, M/SEC               1035.3   1035.3
 CF                         0.7032   1.4384
 Ivac, M/SEC                1296.6   1637.0
 Isp, M/SEC                  728.1   1489.2

 MASS FRACTIONS

 *CO2            0.12576   H2O             0.04369   *NO             0.00232
 NO2             0.00009   *N2             0.61041   *OH             0.00006
 *O2             0.21766

  * THERMODYNAMIC PROPERTIES FITTED TO 20000.K

 NOTE. WEIGHT FRACTION OF FUEL IN TOTAL FUELS AND OF OXIDANT IN TOTAL OXIDANTS

           THEORETICAL ROCKET PERFORMANCE ASSUMING FROZEN COMPOSITION

 Pin =   911.2 PSIA
 CASE = _______________

             REACTANT                    WT FRACTION      ENERGY      TEMP
                                          (SEE NOTE)     KJ/KG-MOL      K  
 FUEL        paraffin                     1.0000000  -1860600.000    298.150
 OXIDANT     N2O                          1.0000000         0.000      0.000

 O/F=   24.50000  %FUEL=  3.921569  R,EQ.RATIO= 0.373001  PHI,EQ.RATIO= 0.373001

                 CHAMBER   THROAT     EXIT
 Pinf/P            1.0000   1.8211   28.019
 P, BAR            62.822   34.496   2.2421
 T, K             1669.87  1466.05   779.56
 RHO, KG/CU M    1.3324 1 8.3338 0 1.0187 0
 H, KJ/KG         -72.836  -337.89 -1181.65
 U, KJ/KG         -544.31  -751.82 -1401.75
 G, KJ/KG        -13013.1 -11698.6 -7222.62
 S, KJ/(KG)(K)     7.7492   7.7492   7.7492

 M, (1/n)          29.448   29.448   29.448
 Cp, KJ/(KG)(K)    1.3119   1.2881   1.1525
 GAMMAs            1.2742   1.2807   1.3245
 SON VEL,M/SEC      775.1    728.1    539.9
 MACH NUMBER        0.000    1.000    2.758

 PERFORMANCE PARAMETERS

 Ae/At                      1.0000   4.0000
 CSTAR, M/SEC               1035.3   1035.3
 CF                         0.7032   1.4384
 Ivac, M/SEC                1296.6   1637.0
 Isp, M/SEC                  728.1   1489.2

 MASS FRACTIONS

 *CO2            0.12576   H2O             0.04369   *NO             0.00232
 NO2             0.00009   *N2             0.61041   *OH             0.00006
 *O2             0.21765

  * THERMODYNAMIC PROPERTIES FITTED TO 20000.K

 NOTE. WEIGHT FRACTION OF FUEL IN TOTAL FUELS AND OF OXIDANT IN TOTAL OXIDANTS

           THEORETICAL ROCKET PERFORMANCE ASSUMING FROZEN COMPOSITION

 Pin =   925.8 PSIA
 CASE = _______________

             REACTANT                    WT FRACTION      ENERGY      TEMP
                                          (SEE NOTE)     KJ/KG-MOL      K  
 FUEL        paraffin                     1.0000000  -1860600.000    298.150
 OXIDANT     N2O                          1.0000000         0.000      0.000

 O/F=   24.50000  %FUEL=  3.921569  R,EQ.RATIO= 0.373001  PHI,EQ.RATIO= 0.373001

                 CHAMBER   THROAT     EXIT
 Pinf/P            1.0000   1.8211   28.019
 P, BAR            63.835   35.052   2.2782
 T, K             1669.88  1466.05   779.56
 RHO, KG/CU M    1.3539 1 8.4683 0 1.0351 0
 H, KJ/KG         -72.836  -337.89 -1181.65
 U, KJ/KG         -544.31  -751.82 -1401.75
 G, KJ/KG        -13005.5 -11692.0 -7219.11
 S, KJ/(KG)(K)     7.7447   7.7447   7.7447

 M, (1/n)          29.448   29.448   29.448
 Cp, KJ/(KG)(K)    1.3119   1.2881   1.1525
 GAMMAs            1.2742   1.2807   1.3245
 SON VEL,M/SEC      775.1    728.1    539.9
 MACH NUMBER        0.000    1.000    2.758

 PERFORMANCE PARAMETERS

 Ae/At                      1.0000   4.0000
 CSTAR, M/SEC               1035.3   1035.3
 CF                         0.7032   1.4384
 Ivac, M/SEC                1296.6   1637.0
 Isp, M/SEC                  728.1   1489.2

 MASS FRACTIONS

 *CO2            0.12576   H2O             0.04369   *NO             0.00232
 NO2             0.00009   *N2             0.61041   *OH             0.00006
 *O2             0.21765

  * THERMODYNAMIC PROPERTIES FITTED TO 20000.K

 NOTE. WEIGHT FRACTION OF FUEL IN TOTAL FUELS AND OF OXIDANT IN TOTAL OXIDANTS

           THEORETICAL ROCKET PERFORMANCE ASSUMING FROZEN COMPOSITION

 Pin =   940.5 PSIA
 CASE = _______________

             REACTANT                    WT FRACTION      ENERGY      TEMP
                                          (SEE NOTE)     KJ/KG-MOL      K  
 FUEL        paraffin                     1.0000000  -1860600.000    298.150
 OXIDANT     N2O                          1.0000000         0.000      0.000

 O/F=   24.50000  %FUEL=  3.921569  R,EQ.RATIO= 0.373001  PHI,EQ.RATIO= 0.373001

                 CHAMBER   THROAT     EXIT
 Pinf/P            1.0000   1.8211   28.019
 P, BAR            64.848   35.609   2.3144
 T, K             1669.88  1466.05   779.56
 RHO, KG/CU M    1.3754 1 8.6027 0 1.0515 0
 H, KJ/KG         -72.836  -337.89 -1181.65
 U, KJ/KG         -544.31  -751.82 -1401.76
 G, KJ/KG        -12998.1 -11685.5 -7215.65
 S, KJ/(KG)(K)     7.7403   7.7403   7.7403

 M, (1/n)          29.448   29.448   29.448
 Cp, KJ/(KG)(K)    1.3119   1.2881   1.1525
 GAMMAs            1.2742   1.2807   1.3245
 SON VEL,M/SEC      775.1    728.1    539.9
 MACH NUMBER        0.000    1.000    2.758

 PERFORMANCE PARAMETERS

 Ae/At                      1.0000   4.0000
 CSTAR, M/SEC               1035.3   1035.3
 CF                         0.7032   1.4384
 Ivac, M/SEC                1296.6   1637.0
 Isp, M/SEC                  728.1   1489.2

 MASS FRACTIONS

 *CO2            0.12576   H2O             0.04369   *NO             0.00232
 NO2             0.00009   *N2             0.61041   *OH             0.00006
 *O2             0.21765

  * THERMODYNAMIC PROPERTIES FITTED TO 20000.K

 NOTE. WEIGHT FRACTION OF FUEL IN TOTAL FUELS AND OF OXIDANT IN TOTAL OXIDANTS

           THEORETICAL ROCKET PERFORMANCE ASSUMING FROZEN COMPOSITION

 Pin =   955.2 PSIA
 CASE = _______________

             REACTANT                    WT FRACTION      ENERGY      TEMP
                                          (SEE NOTE)     KJ/KG-MOL      K  
 FUEL        paraffin                     1.0000000  -1860600.000    298.150
 OXIDANT     N2O                          1.0000000         0.000      0.000

 O/F=   24.50000  %FUEL=  3.921569  R,EQ.RATIO= 0.373001  PHI,EQ.RATIO= 0.373001

                 CHAMBER   THROAT     EXIT
 Pinf/P            1.0000   1.8211   28.019
 P, BAR            65.861   36.165   2.3506
 T, K             1669.88  1466.05   779.56
 RHO, KG/CU M    1.3969 1 8.7371 0 1.0679 0
 H, KJ/KG         -72.836  -337.89 -1181.65
 U, KJ/KG         -544.31  -751.82 -1401.76
 G, KJ/KG        -12990.8 -11679.1 -7212.24
 S, KJ/(KG)(K)     7.7359   7.7359   7.7359

 M, (1/n)          29.448   29.448   29.448
 Cp, KJ/(KG)(K)    1.3119   1.2881   1.1525
 GAMMAs            1.2742   1.2807   1.3245
 SON VEL,M/SEC      775.1    728.1    539.9
 MACH NUMBER        0.000    1.000    2.758

 PERFORMANCE PARAMETERS

 Ae/At                      1.0000   4.0000
 CSTAR, M/SEC               1035.3   1035.3
 CF                         0.7032   1.4384
 Ivac, M/SEC                1296.6   1637.0
 Isp, M/SEC                  728.1   1489.2

 MASS FRACTIONS

 *CO2            0.12576   H2O             0.04369   *NO             0.00232
 NO2             0.00010   *N2             0.61041   *OH             0.00006
 *O2             0.21765

  * THERMODYNAMIC PROPERTIES FITTED TO 20000.K

 NOTE. WEIGHT FRACTION OF FUEL IN TOTAL FUELS AND OF OXIDANT IN TOTAL OXIDANTS

           THEORETICAL ROCKET PERFORMANCE ASSUMING FROZEN COMPOSITION

 Pin =   969.9 PSIA
 CASE = _______________

             REACTANT                    WT FRACTION      ENERGY      TEMP
                                          (SEE NOTE)     KJ/KG-MOL      K  
 FUEL        paraffin                     1.0000000  -1860600.000    298.150
 OXIDANT     N2O                          1.0000000         0.000      0.000

 O/F=   24.50000  %FUEL=  3.921569  R,EQ.RATIO= 0.373001  PHI,EQ.RATIO= 0.373001

                 CHAMBER   THROAT     EXIT
 Pinf/P            1.0000   1.8211   28.019
 P, BAR            66.874   36.722   2.3867
 T, K             1669.88  1466.05   779.56
 RHO, KG/CU M    1.4184 1 8.8715 0 1.0844 0
 H, KJ/KG         -72.836  -337.89 -1181.65
 U, KJ/KG         -544.31  -751.82 -1401.76
 G, KJ/KG        -12983.6 -11672.8 -7208.89
 S, KJ/(KG)(K)     7.7316   7.7316   7.7316

 M, (1/n)          29.448   29.448   29.448
 Cp, KJ/(KG)(K)    1.3119   1.2881   1.1525
 GAMMAs            1.2742   1.2807   1.3245
 SON VEL,M/SEC      775.1    728.1    539.9
 MACH NUMBER        0.000    1.000    2.758

 PERFORMANCE PARAMETERS

 Ae/At                      1.0000   4.0000
 CSTAR, M/SEC               1035.3   1035.3
 CF                         0.7032   1.4384
 Ivac, M/SEC                1296.6   1637.0
 Isp, M/SEC                  728.1   1489.2

 MASS FRACTIONS

 *CO2            0.12576   H2O             0.04369   *NO             0.00232
 NO2             0.00010   *N2             0.61041   *OH             0.00006
 *O2             0.21765

  * THERMODYNAMIC PROPERTIES FITTED TO 20000.K

 NOTE. WEIGHT FRACTION OF FUEL IN TOTAL FUELS AND OF OXIDANT IN TOTAL OXIDANTS

           THEORETICAL ROCKET PERFORMANCE ASSUMING FROZEN COMPOSITION

 Pin =   984.6 PSIA
 CASE = _______________

             REACTANT                    WT FRACTION      ENERGY      TEMP
                                          (SEE NOTE)     KJ/KG-MOL      K  
 FUEL        paraffin                     1.0000000  -1860600.000    298.150
 OXIDANT     N2O                          1.0000000         0.000      0.000

 O/F=   24.50000  %FUEL=  3.921569  R,EQ.RATIO= 0.373001  PHI,EQ.RATIO= 0.373001

                 CHAMBER   THROAT     EXIT
 Pinf/P            1.0000   1.8211   28.019
 P, BAR            67.888   37.278   2.4229
 T, K             1669.88  1466.05   779.56
 RHO, KG/CU M    1.4399 1 9.0059 0 1.1008 0
 H, KJ/KG         -72.836  -337.89 -1181.65
 U, KJ/KG         -544.31  -751.82 -1401.76
 G, KJ/KG        -12976.5 -11666.6 -7205.59
 S, KJ/(KG)(K)     7.7273   7.7273   7.7273

 M, (1/n)          29.448   29.448   29.448
 Cp, KJ/(KG)(K)    1.3119   1.2881   1.1525
 GAMMAs            1.2742   1.2807   1.3245
 SON VEL,M/SEC      775.1    728.1    539.9
 MACH NUMBER        0.000    1.000    2.758

 PERFORMANCE PARAMETERS

 Ae/At                      1.0000   4.0000
 CSTAR, M/SEC               1035.3   1035.3
 CF                         0.7032   1.4384
 Ivac, M/SEC                1296.6   1637.0
 Isp, M/SEC                  728.1   1489.2

 MASS FRACTIONS

 *CO2            0.12576   H2O             0.04369   *NO             0.00232
 NO2             0.00010   *N2             0.61041   *OH             0.00006
 *O2             0.21765

  * THERMODYNAMIC PROPERTIES FITTED TO 20000.K

 NOTE. WEIGHT FRACTION OF FUEL IN TOTAL FUELS AND OF OXIDANT IN TOTAL OXIDANTS

           THEORETICAL ROCKET PERFORMANCE ASSUMING FROZEN COMPOSITION

 Pin =   999.3 PSIA
 CASE = _______________

             REACTANT                    WT FRACTION      ENERGY      TEMP
                                          (SEE NOTE)     KJ/KG-MOL      K  
 FUEL        paraffin                     1.0000000  -1860600.000    298.150
 OXIDANT     N2O                          1.0000000         0.000      0.000

 O/F=   24.50000  %FUEL=  3.921569  R,EQ.RATIO= 0.373001  PHI,EQ.RATIO= 0.373001

                 CHAMBER   THROAT     EXIT
 Pinf/P            1.0000   1.8211   28.019
 P, BAR            68.901   37.834   2.4591
 T, K             1669.88  1466.05   779.56
 RHO, KG/CU M    1.4614 1 9.1403 0 1.1172 0
 H, KJ/KG         -72.836  -337.89 -1181.65
 U, KJ/KG         -544.31  -751.82 -1401.76
 G, KJ/KG        -12969.6 -11660.4 -7202.34
 S, KJ/(KG)(K)     7.7231   7.7231   7.7231

 M, (1/n)          29.448   29.448   29.448
 Cp, KJ/(KG)(K)    1.3119   1.2881   1.1525
 GAMMAs            1.2742   1.2807   1.3245
 SON VEL,M/SEC      775.1    728.1    539.9
 MACH NUMBER        0.000    1.000    2.758

 PERFORMANCE PARAMETERS

 Ae/At                      1.0000   4.0000
 CSTAR, M/SEC               1035.3   1035.3
 CF                         0.7032   1.4384
 Ivac, M/SEC                1296.6   1637.0
 Isp, M/SEC                  728.1   1489.2

 MASS FRACTIONS

 *CO2            0.12576   H2O             0.04369   *NO             0.00232
 NO2             0.00010   *N2             0.61041   *OH             0.00006
 *O2             0.21765

  * THERMODYNAMIC PROPERTIES FITTED TO 20000.K

 NOTE. WEIGHT FRACTION OF FUEL IN TOTAL FUELS AND OF OXIDANT IN TOTAL OXIDANTS

           THEORETICAL ROCKET PERFORMANCE ASSUMING FROZEN COMPOSITION

 Pin =  1014.0 PSIA
 CASE = _______________

             REACTANT                    WT FRACTION      ENERGY      TEMP
                                          (SEE NOTE)     KJ/KG-MOL      K  
 FUEL        paraffin                     1.0000000  -1860600.000    298.150
 OXIDANT     N2O                          1.0000000         0.000      0.000

 O/F=   24.50000  %FUEL=  3.921569  R,EQ.RATIO= 0.373001  PHI,EQ.RATIO= 0.373001

                 CHAMBER   THROAT     EXIT
 Pinf/P            1.0000   1.8211   28.019
 P, BAR            69.914   38.391   2.4952
 T, K             1669.88  1466.06   779.56
 RHO, KG/CU M    1.4829 1 9.2747 0 1.1337 0
 H, KJ/KG         -72.836  -337.89 -1181.65
 U, KJ/KG         -544.31  -751.82 -1401.76
 G, KJ/KG        -12962.7 -11654.4 -7199.13
 S, KJ/(KG)(K)     7.7190   7.7190   7.7190

 M, (1/n)          29.448   29.448   29.448
 Cp, KJ/(KG)(K)    1.3119   1.2881   1.1525
 GAMMAs            1.2742   1.2807   1.3245
 SON VEL,M/SEC      775.1    728.1    539.9
 MACH NUMBER        0.000    1.000    2.758

 PERFORMANCE PARAMETERS

 Ae/At                      1.0000   4.0000
 CSTAR, M/SEC               1035.3   1035.3
 CF                         0.7032   1.4384
 Ivac, M/SEC                1296.6   1637.0
 Isp, M/SEC                  728.1   1489.2

 MASS FRACTIONS

 *CO2            0.12576   H2O             0.04369   *NO             0.00232
 NO2             0.00010   *N2             0.61041   *OH             0.00006
 *O2             0.21765

  * THERMODYNAMIC PROPERTIES FITTED TO 20000.K

 NOTE. WEIGHT FRACTION OF FUEL IN TOTAL FUELS AND OF OXIDANT IN TOTAL OXIDANTS

           THEORETICAL ROCKET PERFORMANCE ASSUMING FROZEN COMPOSITION

 Pin =  1028.7 PSIA
 CASE = _______________

             REACTANT                    WT FRACTION      ENERGY      TEMP
                                          (SEE NOTE)     KJ/KG-MOL      K  
 FUEL        paraffin                     1.0000000  -1860600.000    298.150
 OXIDANT     N2O                          1.0000000         0.000      0.000

 O/F=   24.50000  %FUEL=  3.921569  R,EQ.RATIO= 0.373001  PHI,EQ.RATIO= 0.373001

                 CHAMBER   THROAT     EXIT
 Pinf/P            1.0000   1.8211   28.019
 P, BAR            70.927   38.947   2.5314
 T, K             1669.88  1466.06   779.57
 RHO, KG/CU M    1.5044 1 9.4091 0 1.1501 0
 H, KJ/KG         -72.836  -337.89 -1181.66
 U, KJ/KG         -544.31  -751.82 -1401.76
 G, KJ/KG        -12955.9 -11648.5 -7195.97
 S, KJ/(KG)(K)     7.7150   7.7150   7.7150

 M, (1/n)          29.448   29.448   29.448
 Cp, KJ/(KG)(K)    1.3119   1.2881   1.1525
 GAMMAs            1.2742   1.2807   1.3245
 SON VEL,M/SEC      775.1    728.1    539.9
 MACH NUMBER        0.000    1.000    2.758

 PERFORMANCE PARAMETERS

 Ae/At                      1.0000   4.0000
 CSTAR, M/SEC               1035.3   1035.3
 CF                         0.7032   1.4384
 Ivac, M/SEC                1296.6   1637.0
 Isp, M/SEC                  728.1   1489.2

 MASS FRACTIONS

 *CO2            0.12576   H2O             0.04369   *NO             0.00232
 NO2             0.00010   *N2             0.61041   *OH             0.00006
 *O2             0.21765

  * THERMODYNAMIC PROPERTIES FITTED TO 20000.K

 NOTE. WEIGHT FRACTION OF FUEL IN TOTAL FUELS AND OF OXIDANT IN TOTAL OXIDANTS

           THEORETICAL ROCKET PERFORMANCE ASSUMING FROZEN COMPOSITION

 Pin =  1043.4 PSIA
 CASE = _______________

             REACTANT                    WT FRACTION      ENERGY      TEMP
                                          (SEE NOTE)     KJ/KG-MOL      K  
 FUEL        paraffin                     1.0000000  -1860600.000    298.150
 OXIDANT     N2O                          1.0000000         0.000      0.000

 O/F=   24.50000  %FUEL=  3.921569  R,EQ.RATIO= 0.373001  PHI,EQ.RATIO= 0.373001

                 CHAMBER   THROAT     EXIT
 Pinf/P            1.0000   1.8211   28.019
 P, BAR            71.941   39.504   2.5676
 T, K             1669.88  1466.06   779.57
 RHO, KG/CU M    1.5259 1 9.5436 0 1.1665 0
 H, KJ/KG         -72.836  -337.89 -1181.66
 U, KJ/KG         -544.31  -751.82 -1401.76
[...]
 Pinf/P            1.0000   1.8053   26.776
 P, BAR            62.822   34.799   2.3462
 T, K             1287.83  1144.16   638.19
 RHO, KG/CU M    1.2909 1 8.0488 0 9.7289-1
 H, KJ/KG         -619.11  -890.29 -1779.15
 U, KJ/KG        -1105.75 -1322.64 -2020.30
 G, KJ/KG        -12699.8 -11623.3 -7765.84
 S, KJ/(KG)(K)     9.3807   9.3807   9.3807

 M, (1/n)          22.003   22.003   22.003
 MW, MOL WT        18.027   18.027   18.027
 Cp, KJ/(KG)(K)    1.9111   1.8629   1.6338
 GAMMAs            1.2465   1.2545   1.3009
 SON VEL,M/SEC      778.8    736.5    560.1
 MACH NUMBER        0.000    1.000    2.719

 PERFORMANCE PARAMETERS

 Ae/At                      1.0000   4.0000
 CSTAR, M/SEC               1059.8   1059.8
 CF                         0.6949   1.4372
 Ivac, M/SEC                1323.5   1681.5
 Isp, M/SEC                  736.5   1523.2

 MASS FRACTIONS

 CH4             0.03652   *CO             0.30769   *CO2            0.04399
 C2H4            0.00001   C2H6            0.00001   HCN             0.00009
 HNCO            0.00001   *H2             0.02793   H2O             0.03896
 NH3             0.00062   *N2             0.42377   C(gr)           0.12039

  * THERMODYNAMIC PROPERTIES FITTED TO 20000.K

 NOTE. WEIGHT FRACTION OF FUEL IN TOTAL FUELS AND OF OXIDANT IN TOTAL OXIDANTS

           THEORETICAL ROCKET PERFORMANCE ASSUMING FROZEN COMPOSITION

 Pin =   925.8 PSIA
 CASE = _______________

             REACTANT                    WT FRACTION      ENERGY      TEMP
                                          (SEE NOTE)     KJ/KG-MOL      K  
 FUEL        paraffin                     1.0000000  -1860600.000    298.150
 OXIDANT     N2O                          1.0000000         0.000      0.000

 O/F=    2.00000  %FUEL= 33.333333  R,EQ.RATIO= 4.569263  PHI,EQ.RATIO= 4.569263

                 CHAMBER   THROAT     EXIT
 Pinf/P            1.0000   1.8052   26.765
 P, BAR            63.835   35.362   2.3850
 T, K             1288.93  1145.23   639.06
 RHO, KG/CU M    1.3112 1 8.1749 0 9.8805-1
 H, KJ/KG         -619.11  -890.39 -1779.76
 U, KJ/KG        -1105.95 -1322.96 -2021.14
 G, KJ/KG        -12702.3 -11626.5 -7770.69
 S, KJ/(KG)(K)     9.3746   9.3746   9.3746

 M, (1/n)          22.013   22.013   22.013
 MW, MOL WT        18.035   18.035   18.035
 Cp, KJ/(KG)(K)    1.9115   1.8633   1.6340
 GAMMAs            1.2463   1.2543   1.3007
 SON VEL,M/SEC      778.9    736.6    560.3
 MACH NUMBER        0.000    1.000    2.719

 PERFORMANCE PARAMETERS

 Ae/At                      1.0000   4.0000
 CSTAR, M/SEC               1060.1   1060.1
 CF                         0.6948   1.4372
 Ivac, M/SEC                1323.9   1682.0
 Isp, M/SEC                  736.6   1523.6

 MASS FRACTIONS

 CH4             0.03670   *CO             0.30744   *CO2            0.04406
 C2H4            0.00001   C2H6            0.00001   HCN             0.00009
 HNCO            0.00001   *H2             0.02787   H2O             0.03907
 NH3             0.00062   *N2             0.42376   C(gr)           0.12034

  * THERMODYNAMIC PROPERTIES FITTED TO 20000.K

 NOTE. WEIGHT FRACTION OF FUEL IN TOTAL FUELS AND OF OXIDANT IN TOTAL OXIDANTS

           THEORETICAL ROCKET PERFORMANCE ASSUMING FROZEN COMPOSITION

 Pin =   940.5 PSIA
 CASE = _______________

             REACTANT                    WT FRACTION      ENERGY      TEMP
                                          (SEE NOTE)     KJ/KG-MOL      K  
 FUEL        paraffin                     1.0000000  -1860600.000    298.150
 OXIDANT     N2O                          1.0000000         0.000      0.000

 O/F=    2.00000  %FUEL= 33.333333  R,EQ.RATIO= 4.569263  PHI,EQ.RATIO= 4.569263

                 CHAMBER   THROAT     EXIT
 Pinf/P            1.0000   1.8050   26.755
 P, BAR            64.848   35.926   2.4238
 T, K             1290.01  1146.29   639.91
 RHO, KG/CU M    1.3314 1 8.3010 0 1.0032 0
 H, KJ/KG         -619.11  -890.48 -1780.36
 U, KJ/KG        -1106.16 -1323.27 -2021.96
 G, KJ/KG        -12704.8 -11629.7 -7775.48
 S, KJ/(KG)(K)     9.3687   9.3687   9.3687

 M, (1/n)          22.022   22.022   22.022
 MW, MOL WT        18.042   18.042   18.042
 Cp, KJ/(KG)(K)    1.9118   1.8636   1.6342
 GAMMAs            1.2461   1.2541   1.3004
 SON VEL,M/SEC      779.0    736.7    560.5
 MACH NUMBER        0.000    1.000    2.719

 PERFORMANCE PARAMETERS

 Ae/At                      1.0000   4.0000
 CSTAR, M/SEC               1060.4   1060.4
 CF                         0.6948   1.4372
 Ivac, M/SEC                1324.2   1682.5
 Isp, M/SEC                  736.7   1524.0

 MASS FRACTIONS

 CH4             0.03689   *CO             0.30720   *CO2            0.04412
 C2H4            0.00001   C2H6            0.00001   HCN             0.00009
 HNCO            0.00001   *H2             0.02781   H2O             0.03917
 NH3             0.00063   *N2             0.42376   C(gr)           0.12029

  * THERMODYNAMIC PROPERTIES FITTED TO 20000.K

 NOTE. WEIGHT FRACTION OF FUEL IN TOTAL FUELS AND OF OXIDANT IN TOTAL OXIDANTS

           THEORETICAL ROCKET PERFORMANCE ASSUMING FROZEN COMPOSITION

 Pin =   955.2 PSIA
 CASE = _______________

             REACTANT                    WT FRACTION      ENERGY      TEMP
                                          (SEE NOTE)     KJ/KG-MOL      K  
 FUEL        paraffin                     1.0000000  -1860600.000    298.150
 OXIDANT     N2O                          1.0000000         0.000      0.000

 O/F=    2.00000  %FUEL= 33.333333  R,EQ.RATIO= 4.569263  PHI,EQ.RATIO= 4.569263

                 CHAMBER   THROAT     EXIT
 Pinf/P            1.0000   1.8049   26.744
 P, BAR            65.861   36.490   2.4626
 T, K             1291.07  1147.33   640.75
 RHO, KG/CU M    1.3517 1 8.4270 0 1.0184 0
 H, KJ/KG         -619.11  -890.58 -1780.95
 U, KJ/KG        -1106.36 -1323.58 -2022.78
 G, KJ/KG        -12707.2 -11632.9 -7780.21
 S, KJ/(KG)(K)     9.3628   9.3628   9.3628

 M, (1/n)          22.031   22.031   22.031
 MW, MOL WT        18.050   18.050   18.050
 Cp, KJ/(KG)(K)    1.9122   1.8640   1.6344
 GAMMAs            1.2459   1.2539   1.3002
 SON VEL,M/SEC      779.1    736.8    560.7
 MACH NUMBER        0.000    1.000    2.719

 PERFORMANCE PARAMETERS

 Ae/At                      1.0000   4.0000
 CSTAR, M/SEC               1060.7   1060.7
 CF                         0.6947   1.4372
 Ivac, M/SEC                1324.5   1683.0
 Isp, M/SEC                  736.8   1524.4

 MASS FRACTIONS

 CH4             0.03706   *CO             0.30696   *CO2            0.04419
 C2H4            0.00001   C2H6            0.00002   HCN             0.00009
 HNCO            0.00001   *H2             0.02776   H2O             0.03927
 NH3             0.00063   *N2             0.42375   C(gr)           0.12025

  * THERMODYNAMIC PROPERTIES FITTED TO 20000.K

 NOTE. WEIGHT FRACTION OF FUEL IN TOTAL FUELS AND OF OXIDANT IN TOTAL OXIDANTS

           THEORETICAL ROCKET PERFORMANCE ASSUMING FROZEN COMPOSITION

 Pin =   969.9 PSIA
 CASE = _______________

             REACTANT                    WT FRACTION      ENERGY      TEMP
                                          (SEE NOTE)     KJ/KG-MOL      K  
 FUEL        paraffin                     1.0000000  -1860600.000    298.150
 OXIDANT     N2O                          1.0000000         0.000      0.000

 O/F=    2.00000  %FUEL= 33.333333  R,EQ.RATIO= 4.569263  PHI,EQ.RATIO= 4.569263

                 CHAMBER   THROAT     EXIT
 Pinf/P            1.0000   1.8048   26.734
 P, BAR            66.874   37.054   2.5015
 T, K             1292.12  1148.36   641.58
 RHO, KG/CU M    1.3719 1 8.5530 0 1.0335 0
 H, KJ/KG         -619.11  -890.67 -1781.54
 U, KJ/KG        -1106.56 -1323.89 -2023.57
 G, KJ/KG        -12709.6 -11636.0 -7784.87
 S, KJ/(KG)(K)     9.3571   9.3571   9.3571

 M, (1/n)          22.040   22.040   22.040
 MW, MOL WT        18.057   18.057   18.057
 Cp, KJ/(KG)(K)    1.9125   1.8643   1.6346
 GAMMAs            1.2457   1.2537   1.3000
 SON VEL,M/SEC      779.3    737.0    560.9
 MACH NUMBER        0.000    1.000    2.718

 PERFORMANCE PARAMETERS

 Ae/At                      1.0000   4.0000
 CSTAR, M/SEC               1060.9   1060.9
 CF                         0.6946   1.4372
 Ivac, M/SEC                1324.8   1683.5
 Isp, M/SEC                  737.0   1524.7

 MASS FRACTIONS

 CH4             0.03724   *CO             0.30672   *CO2            0.04425
 C2H4            0.00001   C2H6            0.00002   HCN             0.00009
 HNCO            0.00001   *H2             0.02770   H2O             0.03937
 NH3             0.00064   *N2             0.42375   C(gr)           0.12020

  * THERMODYNAMIC PROPERTIES FITTED TO 20000.K

 NOTE. WEIGHT FRACTION OF FUEL IN TOTAL FUELS AND OF OXIDANT IN TOTAL OXIDANTS

           THEORETICAL ROCKET PERFORMANCE ASSUMING FROZEN COMPOSITION

 Pin =   984.6 PSIA
 CASE = _______________

             REACTANT                    WT FRACTION      ENERGY      TEMP
                                          (SEE NOTE)     KJ/KG-MOL      K  
 FUEL        paraffin                     1.0000000  -1860600.000    298.150
 OXIDANT     N2O                          1.0000000         0.000      0.000

 O/F=    2.00000  %FUEL= 33.333333  R,EQ.RATIO= 4.569263  PHI,EQ.RATIO= 4.569263

                 CHAMBER   THROAT     EXIT
 Pinf/P            1.0000   1.8047   26.724
 P, BAR            67.888   37.617   2.5403
 T, K             1293.16  1149.38   642.40
 RHO, KG/CU M    1.3921 1 8.6790 0 1.0486 0
 H, KJ/KG         -619.11  -890.76 -1782.11
 U, KJ/KG        -1106.76 -1324.19 -2024.36
 G, KJ/KG        -12712.0 -11639.0 -7789.47
 S, KJ/(KG)(K)     9.3514   9.3514   9.3514

 M, (1/n)          22.049   22.049   22.049
 MW, MOL WT        18.064   18.064   18.064
 Cp, KJ/(KG)(K)    1.9129   1.8647   1.6348
 GAMMAs            1.2455   1.2535   1.2998
 SON VEL,M/SEC      779.4    737.1    561.1
 MACH NUMBER        0.000    1.000    2.718

 PERFORMANCE PARAMETERS

 Ae/At                      1.0000   4.0000
 CSTAR, M/SEC               1061.2   1061.2
 CF                         0.6946   1.4372
 Ivac, M/SEC                1325.1   1684.0
 Isp, M/SEC                  737.1   1525.1

 MASS FRACTIONS

 CH4             0.03741   *CO             0.30648   *CO2            0.04431
 C2H4            0.00001   C2H6            0.00002   HCN             0.00009
 HNCO            0.00001   *H2             0.02764   H2O             0.03947
 NH3             0.00064   *N2             0.42374   C(gr)           0.12015

  * THERMODYNAMIC PROPERTIES FITTED TO 20000.K

 NOTE. WEIGHT FRACTION OF FUEL IN TOTAL FUELS AND OF OXIDANT IN TOTAL OXIDANTS

           THEORETICAL ROCKET PERFORMANCE ASSUMING FROZEN COMPOSITION

 Pin =   999.3 PSIA
 CASE = _______________

             REACTANT                    WT FRACTION      ENERGY      TEMP
                                          (SEE NOTE)     KJ/KG-MOL      K  
 FUEL        paraffin                     1.0000000  -1860600.000    298.150
 OXIDANT     N2O                          1.0000000         0.000      0.000

 O/F=    2.00000  %FUEL= 33.333333  R,EQ.RATIO= 4.569263  PHI,EQ.RATIO= 4.569263

                 CHAMBER   THROAT     EXIT
 Pinf/P            1.0000   1.8046   26.714
 P, BAR            68.901   38.181   2.5792
 T, K             1294.18  1150.38   643.21
 RHO, KG/CU M    1.4124 1 8.8049 0 1.0638 0
 H, KJ/KG         -619.11  -890.85 -1782.68
 U, KJ/KG        -1106.95 -1324.49 -2025.14
 G, KJ/KG        -12714.3 -11642.1 -7794.02
 S, KJ/(KG)(K)     9.3458   9.3458   9.3458

 M, (1/n)          22.057   22.057   22.057
 MW, MOL WT        18.071   18.071   18.071
 Cp, KJ/(KG)(K)    1.9132   1.8650   1.6350
 GAMMAs            1.2454   1.2533   1.2996
 SON VEL,M/SEC      779.5    737.2    561.3
 MACH NUMBER        0.000    1.000    2.718

 PERFORMANCE PARAMETERS

 Ae/At                      1.0000   4.0000
 CSTAR, M/SEC               1061.5   1061.5
 CF                         0.6945   1.4372
 Ivac, M/SEC                1325.4   1684.4
 Isp, M/SEC                  737.2   1525.5

 MASS FRACTIONS

 CH4             0.03758   *CO             0.30625   *CO2            0.04437
 C2H4            0.00001   C2H6            0.00002   HCN             0.00009
 HNCO            0.00001   *H2             0.02759   H2O             0.03957
 NH3             0.00065   *N2             0.42374   C(gr)           0.12010

  * THERMODYNAMIC PROPERTIES FITTED TO 20000.K

 NOTE. WEIGHT FRACTION OF FUEL IN TOTAL FUELS AND OF OXIDANT IN TOTAL OXIDANTS

           THEORETICAL ROCKET PERFORMANCE ASSUMING FROZEN COMPOSITION

 Pin =  1014.0 PSIA
 CASE = _______________

             REACTANT                    WT FRACTION      ENERGY      TEMP
                                          (SEE NOTE)     KJ/KG-MOL      K  
 FUEL        paraffin                     1.0000000  -1860600.000    298.150
 OXIDANT     N2O                          1.0000000         0.000      0.000

 O/F=    2.00000  %FUEL= 33.333333  R,EQ.RATIO= 4.569263  PHI,EQ.RATIO= 4.569263

                 CHAMBER   THROAT     EXIT
 Pinf/P            1.0000   1.8045   26.704
 P, BAR            69.914   38.745   2.6181
 T, K             1295.19  1151.36   644.01
 RHO, KG/CU M    1.4326 1 8.9307 0 1.0789 0
 H, KJ/KG         -619.11  -890.94 -1783.24
 U, KJ/KG        -1107.14 -1324.78 -2025.90
 G, KJ/KG        -12716.6 -11645.0 -7798.50
 S, KJ/(KG)(K)     9.3403   9.3403   9.3403

 M, (1/n)          22.066   22.066   22.066
 MW, MOL WT        18.078   18.078   18.078
 Cp, KJ/(KG)(K)    1.9135   1.8653   1.6352
 GAMMAs            1.2452   1.2531   1.2994
 SON VEL,M/SEC      779.5    737.3    561.5
 MACH NUMBER        0.000    1.000    2.717

 PERFORMANCE PARAMETERS

 Ae/At                      1.0000   4.0000
 CSTAR, M/SEC               1061.7   1061.7
 CF                         0.6945   1.4371
 Ivac, M/SEC                1325.7   1684.9
 Isp, M/SEC                  737.3   1525.9

 MASS FRACTIONS

 CH4             0.03775   *CO             0.30602   *CO2            0.04443
 C2H4            0.00001   C2H6            0.00002   HCN             0.00009
 HNCO            0.00001   *H2             0.02753   H2O             0.03967
 NH3             0.00066   *N2             0.42373   C(gr)           0.12006

  * THERMODYNAMIC PROPERTIES FITTED TO 20000.K

 NOTE. WEIGHT FRACTION OF FUEL IN TOTAL FUELS AND OF OXIDANT IN TOTAL OXIDANTS

           THEORETICAL ROCKET PERFORMANCE ASSUMING FROZEN COMPOSITION

 Pin =  1028.7 PSIA
 CASE = _______________

             REACTANT                    WT FRACTION      ENERGY      TEMP
                                          (SEE NOTE)     KJ/KG-MOL      K  
 FUEL        paraffin                     1.0000000  -1860600.000    298.150
 OXIDANT     N2O                          1.0000000         0.000      0.000

 O/F=    2.00000  %FUEL= 33.333333  R,EQ.RATIO= 4.569263  PHI,EQ.RATIO= 4.569263

                 CHAMBER   THROAT     EXIT
 Pinf/P            1.0000   1.8044   26.695
 P, BAR            70.927   39.309   2.6570
 T, K             1296.19  1152.34   644.80
 RHO, KG/CU M    1.4528 1 9.0565 0 1.0940 0
 H, KJ/KG         -619.11  -891.02 -1783.79
 U, KJ/KG        -1107.33 -1325.06 -2026.66
 G, KJ/KG        -12718.9 -11648.0 -7802.93
 S, KJ/(KG)(K)     9.3349   9.3349   9.3349

 M, (1/n)          22.074   22.074   22.074
 MW, MOL WT        18.085   18.085   18.085
 Cp, KJ/(KG)(K)    1.9139   1.8656   1.6354
 GAMMAs            1.2450   1.2530   1.2992
 SON VEL,M/SEC      779.6    737.5    561.7
 MACH NUMBER        0.000    1.000    2.717

 PERFORMANCE PARAMETERS

 Ae/At                      1.0000   4.0000
 CSTAR, M/SEC               1062.0   1062.0
 CF                         0.6944   1.4371
 Ivac, M/SEC                1326.0   1685.4
 Isp, M/SEC                  737.5   1526.2

 MASS FRACTIONS

 CH4             0.03792   *CO             0.30580   *CO2            0.04449
 C2H4            0.00001   C2H6            0.00002   HCN             0.00009
 HNCO            0.00001   *H2             0.02748   H2O             0.03977
 NH3             0.00066   *N2             0.42373   C(gr)           0.12001

  * THERMODYNAMIC PROPERTIES FITTED TO 20000.K

 NOTE. WEIGHT FRACTION OF FUEL IN TOTAL FUELS AND OF OXIDANT IN TOTAL OXIDANTS

           THEORETICAL ROCKET PERFORMANCE ASSUMING FROZEN COMPOSITION

 Pin =  1043.4 PSIA
 CASE = _______________

             REACTANT                    WT FRACTION      ENERGY      TEMP
                                          (SEE NOTE)     KJ/KG-MOL      K  
 FUEL        paraffin                     1.0000000  -1860600.000    298.150
 OXIDANT     N2O                          1.0000000         0.000      0.000

 O/F=    2.00000  %FUEL= 33.333333  R,EQ.RATIO= 4.569263  PHI,EQ.RATIO= 4.569263

                 CHAMBER   THROAT     EXIT
 Pinf/P            1.0000   1.8043   26.685
 P, BAR            71.941   39.873   2.6959
 T, K             1297.17  1153.30   645.58
 RHO, KG/CU M    1.4730 1 9.1823 0 1.1091 0
 H, KJ/KG         -619.11  -891.11 -1784.33
 U, KJ/KG        -1107.51 -1325.35 -2027.40
 G, KJ/KG        -12721.1 -11650.9 -7807.30
 S, KJ/(KG)(K)     9.3296   9.3296   9.3296

 M, (1/n)          22.083   22.083   22.083
 MW, MOL WT        18.092   18.092   18.092
 Cp, KJ/(KG)(K)    1.9142   1.8660   1.6356
 GAMMAs            1.2449   1.2528   1.2990
 SON VEL,M/SEC      779.7    737.6    561.9
 MACH NUMBER        0.000    1.000    2.717

 PERFORMANCE PARAMETERS

 Ae/At                      1.0000   4.0000
 CSTAR, M/SEC               1062.2   1062.2
 CF                         0.6944   1.4371
 Ivac, M/SEC                1326.3   1685.8
 Isp, M/SEC                  737.6   1526.6

 MASS FRACTIONS

 CH4             0.03809   *CO             0.30557   *CO2            0.04455
 C2H4            0.00001   C2H6            0.00002   HCN             0.00009
 HNCO            0.00001   *H2             0.02743   H2O             0.03986
 NH3             0.00067   *N2             0.42372   C(gr)           0.11997

  * THERMODYNAMIC PROPERTIES FITTED TO 20000.K

 NOTE. WEIGHT FRACTION OF FUEL IN TOTAL FUELS AND OF OXIDANT IN TOTAL OXIDANTS

           THEORETICAL ROCKET PERFORMANCE ASSUMING FROZEN COMPOSITION

 Pin =  1058.1 PSIA
 CASE = _______________

             REACTANT                    WT FRACTION      ENERGY      TEMP
                                          (SEE NOTE)     KJ/KG-MOL      K  
 FUEL        paraffin                     1.0000000  -1860600.000    298.150
 OXIDANT     N2O                          1.0000000         0.000      0.000

 O/F=    2.00000  %FUEL= 33.333333  R,EQ.RATIO= 4.569263  PHI,EQ.RATIO= 4.569263

                 CHAMBER   THROAT     EXIT
 Pinf/P            1.0000   1.8042   26.676
 P, BAR            72.954   40.437   2.7349
 T, K             1298.14  1154.25   646.35
 RHO, KG/CU M    1.4932 1 9.3080 0 1.1242 0
 H, KJ/KG         -619.11  -891.19 -1784.86
 U, KJ/KG        -1107.69 -1325.63 -2028.13
 G, KJ/KG        -12723.3 -11653.7 -7811.62
 S, KJ/(KG)(K)     9.3243   9.3243   9.3243

 M, (1/n)          22.091   22.091   22.091
 MW, MOL WT        18.099   18.099   18.099
 Cp, KJ/(KG)(K)    1.9145   1.8663   1.6358
 GAMMAs            1.2447   1.2526   1.2989
 SON VEL,M/SEC      779.8    737.7    562.1
 MACH NUMBER        0.000    1.000    2.716

 PERFORMANCE PARAMETERS

 Ae/At                      1.0000   4.0000
 CSTAR, M/SEC               1062.5   1062.5
 CF                         0.6943   1.4371
 Ivac, M/SEC                1326.6   1686.2
 Isp, M/SEC                  737.7   1526.9

 MASS FRACTIONS

 CH4             0.03825   *CO             0.30535   *CO2            0.04461
 C2H4            0.00001   C2H6            0.00002   HCN             0.00009
 HNCO            0.00001   *H2             0.02738   H2O             0.03995
 NH3             0.00067   *N2             0.42372   C(gr)           0.11992

  * THERMODYNAMIC PROPERTIES FITTED TO 20000.K

 NOTE. WEIGHT FRACTION OF FUEL IN TOTAL FUELS AND OF OXIDANT IN TOTAL OXIDANTS