         NASA-GLENN CHEMICAL EQUILIBRIUM PROGRAM CEA2, FEBRUARY 5, 2004
                   BY  BONNIE MCBRIDE AND SANFORD GORDON
      REFS: NASA RP-1311, PART I, 1994 AND NASA RP-1311, PART II, 1996

 *******************************************************************************

  
 ### CEA analysis performed on Tue 12-Oct-2021 14:54:29
  
 # Problem Type: "Rocket" (Infinite Area Combustor)
  
 prob case=_______________5782 ro frozen
  
 # Pressure (24 values):
 p,atm= 1, 2, 3, 4, 5, 6, 7, 8, 9, 10, 11, 12, 13, 14, 15, 16, 17, 18, 19, 20, 21
 , 22, 23, 24
 # Supersonic Area Ratio (1 value):
 supar= 4
  
 # Oxidizer/Fuel Wt. ratio (31 values):
 o/f= 12.3, 12.5, 12.7, 12.9, 13.1, 13.3, 13.5, 13.7, 13.9, 14.1, 14.3, 14.5, 14.
 7, 14.9, 15.1, 15.3, 15.5, 15.7, 15.9, 16.1, 16.3, 1
  
 # You selected the following fuels and oxidizers:
 reac
 fuel paraffin          wt%=100.0000
 oxid N2O               wt%=100.0000
  
 # You selected these options for output:
 # short version of output
 output short
 # Proportions of any products will be expressed as Mass Fractions.
 output massf
 # Heat will be expressed as siunits
 output siunits
  
 # Input prepared by this script:/var/www/sites/cearun.grc.nasa.gov/cgi-bin/CEARU
 N/prepareInputFile.cgi
  
 ### IMPORTANT:  The following line is the end of your CEA input file!
 end

           THEORETICAL ROCKET PERFORMANCE ASSUMING FROZEN COMPOSITION

 Pin =    14.7 PSIA
 CASE = _______________

             REACTANT                    WT FRACTION      ENERGY      TEMP
                                          (SEE NOTE)     KJ/KG-MOL      K  
 FUEL        paraffin                     1.0000000  -1860600.000    298.150
 OXIDANT     N2O                          1.0000000         0.000      0.000

 O/F=   12.30000  %FUEL=  7.518797  R,EQ.RATIO= 0.742970  PHI,EQ.RATIO= 0.742970

                 CHAMBER   THROAT     EXIT
 Pinf/P            1.0000   1.8003   25.808
 P, BAR            1.0132  0.56283  0.03926
 T, K             2455.50  2187.44  1266.03
 RHO, KG/CU M    1.4460-1 9.0162-2 1.0867-2
 H, KJ/KG         -139.65  -528.77 -1813.80
 U, KJ/KG         -840.39 -1153.01 -2175.10
 G, KJ/KG        -23906.1 -21700.7 -14067.5
 S, KJ/(KG)(K)     9.6789   9.6789   9.6789

 M, (1/n)          29.135   29.135   29.135
 Cp, KJ/(KG)(K)    1.4604   1.4422   1.3299
 GAMMAs            1.2429   1.2467   1.2732
 SON VEL,M/SEC      933.2    882.2    678.2
 MACH NUMBER        0.000    1.000    2.698

 PERFORMANCE PARAMETERS

 Ae/At                      1.0000   4.0000
 CSTAR, M/SEC               1273.9   1273.9
 CF                         0.6925   1.4364
 Ivac, M/SEC                1589.8   2027.3
 Isp, M/SEC                  882.2   1829.8

 MASS FRACTIONS

 *CO             0.01439   *CO2            0.21852   *H              0.00003
 HO2             0.00001   *H2             0.00015   H2O             0.07845
 *NO             0.01163   NO2             0.00001   *N2             0.58319
 *O              0.00176   *OH             0.00708   *O2             0.08477

  * THERMODYNAMIC PROPERTIES FITTED TO 20000.K

 NOTE. WEIGHT FRACTION OF FUEL IN TOTAL FUELS AND OF OXIDANT IN TOTAL OXIDANTS

           THEORETICAL ROCKET PERFORMANCE ASSUMING FROZEN COMPOSITION

 Pin =    29.4 PSIA
 CASE = _______________

             REACTANT                    WT FRACTION      ENERGY      TEMP
                                          (SEE NOTE)     KJ/KG-MOL      K  
 FUEL        paraffin                     1.0000000  -1860600.000    298.150
 OXIDANT     N2O                          1.0000000         0.000      0.000

 O/F=   12.30000  %FUEL=  7.518797  R,EQ.RATIO= 0.742970  PHI,EQ.RATIO= 0.742970

                 CHAMBER   THROAT     EXIT
 Pinf/P            1.0000   1.7996   25.737
 P, BAR            2.0265   1.1261  0.07874
 T, K             2482.38  2212.49  1284.14
 RHO, KG/CU M    2.8669-1 1.7874-1 2.1533-2
 H, KJ/KG         -139.65  -532.00 -1829.35
 U, KJ/KG         -846.51 -1162.01 -2195.01
 G, KJ/KG        -23675.9 -21509.3 -14004.6
 S, KJ/(KG)(K)     9.4813   9.4813   9.4813

 M, (1/n)          29.199   29.199   29.199
 Cp, KJ/(KG)(K)    1.4624   1.4444   1.3335
 GAMMAs            1.2418   1.2455   1.2715
 SON VEL,M/SEC      936.9    885.8    681.9
 MACH NUMBER        0.000    1.000    2.696

 PERFORMANCE PARAMETERS

 Ae/At                      1.0000   4.0000
 CSTAR, M/SEC               1279.9   1279.9
 CF                         0.6921   1.4363
 Ivac, M/SEC                1597.0   2037.2
 Isp, M/SEC                  885.8   1838.3

 MASS FRACTIONS

 *CO             0.01205   *CO2            0.22220   *H              0.00002
 HO2             0.00001   *H2             0.00012   H2O             0.07909
 *NO             0.01212   NO2             0.00001   *N2             0.58297
 *O              0.00141   *OH             0.00648   *O2             0.08352

  * THERMODYNAMIC PROPERTIES FITTED TO 20000.K

 NOTE. WEIGHT FRACTION OF FUEL IN TOTAL FUELS AND OF OXIDANT IN TOTAL OXIDANTS

           THEORETICAL ROCKET PERFORMANCE ASSUMING FROZEN COMPOSITION

 Pin =    44.1 PSIA
 CASE = _______________

             REACTANT                    WT FRACTION      ENERGY      TEMP
                                          (SEE NOTE)     KJ/KG-MOL      K  
 FUEL        paraffin                     1.0000000  -1860600.000    298.150
 OXIDANT     N2O                          1.0000000         0.000      0.000

 O/F=   12.30000  %FUEL=  7.518797  R,EQ.RATIO= 0.742970  PHI,EQ.RATIO= 0.742970

                 CHAMBER   THROAT     EXIT
 Pinf/P            1.0000   1.7992   25.700
 P, BAR            3.0397   1.6895  0.11828
 T, K             2496.93  2226.05  1293.96
 RHO, KG/CU M    4.2803-1 2.6685-1 3.2139-2
 H, KJ/KG         -139.65  -533.75 -1837.74
 U, KJ/KG         -849.81 -1166.87 -2205.76
 G, KJ/KG        -23525.7 -21382.8 -13956.9
 S, KJ/(KG)(K)     9.3659   9.3659   9.3659

 M, (1/n)          29.234   29.234   29.234
 Cp, KJ/(KG)(K)    1.4635   1.4456   1.3355
 GAMMAs            1.2412   1.2449   1.2706
 SON VEL,M/SEC      938.9    887.8    683.8
 MACH NUMBER        0.000    1.000    2.695

 PERFORMANCE PARAMETERS

 Ae/At                      1.0000   4.0000
 CSTAR, M/SEC               1283.1   1283.1
 CF                         0.6919   1.4363
 Ivac, M/SEC                1600.9   2042.6
 Isp, M/SEC                  887.8   1842.9

 MASS FRACTIONS

 *CO             0.01077   *CO2            0.22421   *H              0.00002
 HO2             0.00001   *H2             0.00011   H2O             0.07944
 *NO             0.01238   NO2             0.00002   *N2             0.58284
 *O              0.00123   *OH             0.00613   *O2             0.08284

  * THERMODYNAMIC PROPERTIES FITTED TO 20000.K

 NOTE. WEIGHT FRACTION OF FUEL IN TOTAL FUELS AND OF OXIDANT IN TOTAL OXIDANTS

           THEORETICAL ROCKET PERFORMANCE ASSUMING FROZEN COMPOSITION

 Pin =    58.8 PSIA
 CASE = _______________

             REACTANT                    WT FRACTION      ENERGY      TEMP
                                          (SEE NOTE)     KJ/KG-MOL      K  
 FUEL        paraffin                     1.0000000  -1860600.000    298.150
 OXIDANT     N2O                          1.0000000         0.000      0.000

 O/F=   12.30000  %FUEL=  7.518797  R,EQ.RATIO= 0.742970  PHI,EQ.RATIO= 0.742970

                 CHAMBER   THROAT     EXIT
 Pinf/P            1.0000   1.7989   25.675
 P, BAR            4.0530   2.2530  0.15786
 T, K             2506.70  2235.16  1300.57
 RHO, KG/CU M    5.6894-1 3.5468-1 4.2710-2
 H, KJ/KG         -139.65  -534.91 -1843.36
 U, KJ/KG         -852.03 -1170.12 -2212.97
 G, KJ/KG        -23412.1 -21286.4 -13918.0
 S, KJ/(KG)(K)     9.2841   9.2841   9.2841

 M, (1/n)          29.257   29.257   29.257
 Cp, KJ/(KG)(K)    1.4642   1.4465   1.3368
 GAMMAs            1.2408   1.2445   1.2700
 SON VEL,M/SEC      940.2    889.1    685.1
 MACH NUMBER        0.000    1.000    2.694

 PERFORMANCE PARAMETERS

 Ae/At                      1.0000   4.0000
 CSTAR, M/SEC               1285.2   1285.2
 CF                         0.6918   1.4363
 Ivac, M/SEC                1603.5   2046.2
 Isp, M/SEC                  889.1   1845.9

 MASS FRACTIONS

 *CO             0.00990   *CO2            0.22557   *H              0.00002
 HO2             0.00001   *H2             0.00010   H2O             0.07968
 *NO             0.01256   NO2             0.00002   *N2             0.58276
 *O              0.00112   *OH             0.00588   *O2             0.08238

  * THERMODYNAMIC PROPERTIES FITTED TO 20000.K

 NOTE. WEIGHT FRACTION OF FUEL IN TOTAL FUELS AND OF OXIDANT IN TOTAL OXIDANTS

           THEORETICAL ROCKET PERFORMANCE ASSUMING FROZEN COMPOSITION

 Pin =    73.5 PSIA
 CASE = _______________

             REACTANT                    WT FRACTION      ENERGY      TEMP
                                          (SEE NOTE)     KJ/KG-MOL      K  
 FUEL        paraffin                     1.0000000  -1860600.000    298.150
 OXIDANT     N2O                          1.0000000         0.000      0.000

 O/F=   12.30000  %FUEL=  7.518797  R,EQ.RATIO= 0.742970  PHI,EQ.RATIO= 0.742970

                 CHAMBER   THROAT     EXIT
 Pinf/P            1.0000   1.7988   25.656
 P, BAR            5.0663   2.8165  0.19747
 T, K             2513.95  2241.92  1305.48
 RHO, KG/CU M    7.0954-1 4.4232-1 5.3256-2
 H, KJ/KG         -139.65  -535.78 -1847.53
 U, KJ/KG         -853.67 -1172.53 -2218.31
 G, KJ/KG        -23320.1 -21207.9 -13885.0
 S, KJ/(KG)(K)     9.2207   9.2207   9.2207

 M, (1/n)          29.274   29.274   29.274
 Cp, KJ/(KG)(K)    1.4647   1.4471   1.3377
 GAMMAs            1.2406   1.2442   1.2696
 SON VEL,M/SEC      941.2    890.1    686.1
 MACH NUMBER        0.000    1.000    2.694

 PERFORMANCE PARAMETERS

 Ae/At                      1.0000   4.0000
 CSTAR, M/SEC               1286.8   1286.8
 CF                         0.6917   1.4363
 Ivac, M/SEC                1605.5   2048.8
 Isp, M/SEC                  890.1   1848.2

 MASS FRACTIONS

 *CO             0.00926   *CO2            0.22658   *H              0.00001
 HO2             0.00001   *H2             0.00009   H2O             0.07986
 *NO             0.01269   NO2             0.00002   *N2             0.58269
 *O              0.00103   *OH             0.00568   *O2             0.08205

  * THERMODYNAMIC PROPERTIES FITTED TO 20000.K

 NOTE. WEIGHT FRACTION OF FUEL IN TOTAL FUELS AND OF OXIDANT IN TOTAL OXIDANTS

           THEORETICAL ROCKET PERFORMANCE ASSUMING FROZEN COMPOSITION

 Pin =    88.2 PSIA
 CASE = _______________

             REACTANT                    WT FRACTION      ENERGY      TEMP
                                          (SEE NOTE)     KJ/KG-MOL      K  
 FUEL        paraffin                     1.0000000  -1860600.000    298.150
 OXIDANT     N2O                          1.0000000         0.000      0.000

 O/F=   12.30000  %FUEL=  7.518797  R,EQ.RATIO= 0.742970  PHI,EQ.RATIO= 0.742970

                 CHAMBER   THROAT     EXIT
 Pinf/P            1.0000   1.7986   25.642
 P, BAR            6.0795   3.3801  0.23709
 T, K             2519.66  2247.25  1309.35
 RHO, KG/CU M    8.4991-1 5.2982-1 6.3785-2
 H, KJ/KG         -139.65  -536.46 -1850.80
 U, KJ/KG         -854.96 -1174.43 -2222.52
 G, KJ/KG        -23242.3 -21141.4 -13856.1
 S, KJ/(KG)(K)     9.1690   9.1690   9.1690

 M, (1/n)          29.288   29.288   29.288
 Cp, KJ/(KG)(K)    1.4651   1.4475   1.3385
 GAMMAs            1.2403   1.2440   1.2692
 SON VEL,M/SEC      941.9    890.9    686.9
 MACH NUMBER        0.000    1.000    2.693

 PERFORMANCE PARAMETERS

 Ae/At                      1.0000   4.0000
 CSTAR, M/SEC               1288.0   1288.0
 CF                         0.6916   1.4362
 Ivac, M/SEC                1607.0   2050.9
 Isp, M/SEC                  890.9   1849.9

 MASS FRACTIONS

 *CO             0.00875   *CO2            0.22738   *H              0.00001
 HO2             0.00001   *H2             0.00009   H2O             0.08001
 *NO             0.01280   NO2             0.00003   *N2             0.58264
 *O              0.00097   *OH             0.00553   *O2             0.08178

  * THERMODYNAMIC PROPERTIES FITTED TO 20000.K

 NOTE. WEIGHT FRACTION OF FUEL IN TOTAL FUELS AND OF OXIDANT IN TOTAL OXIDANTS

           THEORETICAL ROCKET PERFORMANCE ASSUMING FROZEN COMPOSITION

 Pin =   102.9 PSIA
 CASE = _______________

             REACTANT                    WT FRACTION      ENERGY      TEMP
                                          (SEE NOTE)     KJ/KG-MOL      K  
 FUEL        paraffin                     1.0000000  -1860600.000    298.150
 OXIDANT     N2O                          1.0000000         0.000      0.000

 O/F=   12.30000  %FUEL=  7.518797  R,EQ.RATIO= 0.742970  PHI,EQ.RATIO= 0.742970

                 CHAMBER   THROAT     EXIT
 Pinf/P            1.0000   1.7985   25.630
 P, BAR            7.0927   3.9437  0.27674
 T, K             2524.33  2251.61  1312.52
 RHO, KG/CU M    9.9011-1 6.1720-1 7.4298-2
 H, KJ/KG         -139.65  -537.01 -1853.49
 U, KJ/KG         -856.01 -1175.98 -2225.96
 G, KJ/KG        -23174.7 -21083.4 -13830.5
 S, KJ/(KG)(K)     9.1252   9.1252   9.1252

 M, (1/n)          29.299   29.299   29.299
 Cp, KJ/(KG)(K)    1.4655   1.4479   1.3391
 GAMMAs            1.2401   1.2438   1.2689
 SON VEL,M/SEC      942.5    891.5    687.5
 MACH NUMBER        0.000    1.000    2.693

 PERFORMANCE PARAMETERS

 Ae/At                      1.0000   4.0000
 CSTAR, M/SEC               1289.1   1289.1
 CF                         0.6916   1.4362
 Ivac, M/SEC                1608.2   2052.6
 Isp, M/SEC                  891.5   1851.4

 MASS FRACTIONS

 *CO             0.00833   *CO2            0.22804   *H              0.00001
 HO2             0.00002   *H2             0.00008   H2O             0.08013
 *NO             0.01288   NO2             0.00003   *N2             0.58260
 *O              0.00091   *OH             0.00539   *O2             0.08157

  * THERMODYNAMIC PROPERTIES FITTED TO 20000.K

 NOTE. WEIGHT FRACTION OF FUEL IN TOTAL FUELS AND OF OXIDANT IN TOTAL OXIDANTS

           THEORETICAL ROCKET PERFORMANCE ASSUMING FROZEN COMPOSITION

 Pin =   117.6 PSIA
 CASE = _______________

             REACTANT                    WT FRACTION      ENERGY      TEMP
                                          (SEE NOTE)     KJ/KG-MOL      K  
 FUEL        paraffin                     1.0000000  -1860600.000    298.150
 OXIDANT     N2O                          1.0000000         0.000      0.000

 O/F=   12.30000  %FUEL=  7.518797  R,EQ.RATIO= 0.742970  PHI,EQ.RATIO= 0.742970

                 CHAMBER   THROAT     EXIT
 Pinf/P            1.0000   1.7984   25.620
 P, BAR            8.1060   4.5074  0.31640
 T, K             2528.27  2255.28  1315.19
 RHO, KG/CU M    1.1301 0 7.0449-1 8.4800-2
 H, KJ/KG         -139.65  -537.48 -1855.74
 U, KJ/KG         -856.90 -1177.29 -2228.85
 G, KJ/KG        -23114.8 -21031.9 -13807.3
 S, KJ/(KG)(K)     9.0873   9.0873   9.0873

 M, (1/n)          29.308   29.308   29.308
 Cp, KJ/(KG)(K)    1.4658   1.4482   1.3396
 GAMMAs            1.2400   1.2436   1.2687
 SON VEL,M/SEC      943.1    892.0    688.0
 MACH NUMBER        0.000    1.000    2.693

 PERFORMANCE PARAMETERS

 Ae/At                      1.0000   4.0000
 CSTAR, M/SEC               1289.9   1289.9
 CF                         0.6915   1.4362
 Ivac, M/SEC                1609.3   2054.0
 Isp, M/SEC                  892.0   1852.6

 MASS FRACTIONS

 *CO             0.00798   *CO2            0.22859   *H              0.00001
 HO2             0.00002   *H2             0.00008   H2O             0.08023
 *NO             0.01296   NO2             0.00003   *N2             0.58257
 *O              0.00087   *OH             0.00528   *O2             0.08139

  * THERMODYNAMIC PROPERTIES FITTED TO 20000.K

 NOTE. WEIGHT FRACTION OF FUEL IN TOTAL FUELS AND OF OXIDANT IN TOTAL OXIDANTS

           THEORETICAL ROCKET PERFORMANCE ASSUMING FROZEN COMPOSITION

 Pin =   132.3 PSIA
 CASE = _______________

             REACTANT                    WT FRACTION      ENERGY      TEMP
                                          (SEE NOTE)     KJ/KG-MOL      K  
 FUEL        paraffin                     1.0000000  -1860600.000    298.150
 OXIDANT     N2O                          1.0000000         0.000      0.000

 O/F=   12.30000  %FUEL=  7.518797  R,EQ.RATIO= 0.742970  PHI,EQ.RATIO= 0.742970

                 CHAMBER   THROAT     EXIT
 Pinf/P            1.0000   1.7983   25.611
 P, BAR            9.1192   5.0710  0.35606
 T, K             2531.65  2258.44  1317.48
 RHO, KG/CU M    1.2701 0 7.9170-1 9.5292-2
 H, KJ/KG         -139.65  -537.88 -1857.68
 U, KJ/KG         -857.66 -1178.41 -2231.34
 G, KJ/KG        -23061.0 -20985.6 -13786.0
 S, KJ/(KG)(K)     9.0539   9.0539   9.0539

 M, (1/n)          29.316   29.316   29.316
 Cp, KJ/(KG)(K)    1.4660   1.4485   1.3400
 GAMMAs            1.2399   1.2435   1.2685
 SON VEL,M/SEC      943.5    892.5    688.5
 MACH NUMBER        0.000    1.000    2.692

 PERFORMANCE PARAMETERS

 Ae/At                      1.0000   4.0000
 CSTAR, M/SEC               1290.7   1290.7
 CF                         0.6915   1.4362
 Ivac, M/SEC                1610.2   2055.2
 Isp, M/SEC                  892.5   1853.7

 MASS FRACTIONS

 *CO             0.00768   *CO2            0.22906   *H              0.00001
 HO2             0.00002   *H2             0.00008   H2O             0.08031
 *NO             0.01302   NO2             0.00003   *N2             0.58254
 *O              0.00083   *OH             0.00518   *O2             0.08124

  * THERMODYNAMIC PROPERTIES FITTED TO 20000.K

 NOTE. WEIGHT FRACTION OF FUEL IN TOTAL FUELS AND OF OXIDANT IN TOTAL OXIDANTS

           THEORETICAL ROCKET PERFORMANCE ASSUMING FROZEN COMPOSITION

 Pin =   147.0 PSIA
 CASE = _______________

             REACTANT                    WT FRACTION      ENERGY      TEMP
                                          (SEE NOTE)     KJ/KG-MOL      K  
 FUEL        paraffin                     1.0000000  -1860600.000    298.150
 OXIDANT     N2O                          1.0000000         0.000      0.000

 O/F=   12.30000  %FUEL=  7.518797  R,EQ.RATIO= 0.742970  PHI,EQ.RATIO= 0.742970

                 CHAMBER   THROAT     EXIT
 Pinf/P            1.0000   1.7982   25.604
 P, BAR            10.133   5.6347  0.39574
 T, K             2534.61  2261.20  1319.49
 RHO, KG/CU M    1.4099 0 8.7884-1 1.0577-1
 H, KJ/KG         -139.65  -538.24 -1859.38
 U, KJ/KG         -858.33 -1179.39 -2233.51
 G, KJ/KG        -23012.0 -20943.3 -13766.5
 S, KJ/(KG)(K)     9.0240   9.0240   9.0240

 M, (1/n)          29.323   29.323   29.323
 Cp, KJ/(KG)(K)    1.4662   1.4488   1.3404
 GAMMAs            1.2397   1.2433   1.2683
 SON VEL,M/SEC      943.9    892.8    688.8
 MACH NUMBER        0.000    1.000    2.692

 PERFORMANCE PARAMETERS

 Ae/At                      1.0000   4.0000
 CSTAR, M/SEC               1291.3   1291.3
 CF                         0.6914   1.4362
 Ivac, M/SEC                1610.9   2056.3
 Isp, M/SEC                  892.8   1854.6

 MASS FRACTIONS

 *CO             0.00742   *CO2            0.22948   *H              0.00001
 HO2             0.00002   *H2             0.00007   H2O             0.08039
 *NO             0.01308   NO2             0.00003   *N2             0.58251
 *O              0.00080   *OH             0.00509   *O2             0.08110

  * THERMODYNAMIC PROPERTIES FITTED TO 20000.K

 NOTE. WEIGHT FRACTION OF FUEL IN TOTAL FUELS AND OF OXIDANT IN TOTAL OXIDANTS

           THEORETICAL ROCKET PERFORMANCE ASSUMING FROZEN COMPOSITION

 Pin =   161.7 PSIA
 CASE = _______________

             REACTANT                    WT FRACTION      ENERGY      TEMP
                                          (SEE NOTE)     KJ/KG-MOL      K  
 FUEL        paraffin                     1.0000000  -1860600.000    298.150
 OXIDANT     N2O                          1.0000000         0.000      0.000

 O/F=   12.30000  %FUEL=  7.518797  R,EQ.RATIO= 0.742970  PHI,EQ.RATIO= 0.742970

                 CHAMBER   THROAT     EXIT
 Pinf/P            1.0000   1.7982   25.597
 P, BAR            11.146   6.1984  0.43543
 T, K             2537.23  2263.64  1321.27
 RHO, KG/CU M    1.5496 0 9.6592-1 1.1625-1
 H, KJ/KG         -139.65  -538.55 -1860.88
 U, KJ/KG         -858.92 -1180.26 -2235.44
 G, KJ/KG        -22967.1 -20904.5 -13748.3
 S, KJ/(KG)(K)     8.9970   8.9970   8.9970

 M, (1/n)          29.330   29.330   29.330
 Cp, KJ/(KG)(K)    1.4664   1.4490   1.3408
 GAMMAs            1.2396   1.2432   1.2681
 SON VEL,M/SEC      944.3    893.2    689.2
 MACH NUMBER        0.000    1.000    2.692

 PERFORMANCE PARAMETERS

 Ae/At                      1.0000   4.0000
 CSTAR, M/SEC               1291.9   1291.9
 CF                         0.6914   1.4362
 Ivac, M/SEC                1611.6   2057.3
 Isp, M/SEC                  893.2   1855.4

 MASS FRACTIONS

 *CO             0.00718   *CO2            0.22984   *H              0.00001
 HO2             0.00002   *H2             0.00007   H2O             0.08046
 *NO             0.01312   NO2             0.00003   *N2             0.58249
 *O              0.00077   *OH             0.00501   *O2             0.08098

  * THERMODYNAMIC PROPERTIES FITTED TO 20000.K

 NOTE. WEIGHT FRACTION OF FUEL IN TOTAL FUELS AND OF OXIDANT IN TOTAL OXIDANTS

           THEORETICAL ROCKET PERFORMANCE ASSUMING FROZEN COMPOSITION

 Pin =   176.4 PSIA
 CASE = _______________

             REACTANT                    WT FRACTION      ENERGY      TEMP
                                          (SEE NOTE)     KJ/KG-MOL      K  
 FUEL        paraffin                     1.0000000  -1860600.000    298.150
 OXIDANT     N2O                          1.0000000         0.000      0.000

 O/F=   12.30000  %FUEL=  7.518797  R,EQ.RATIO= 0.742970  PHI,EQ.RATIO= 0.742970

                 CHAMBER   THROAT     EXIT
 Pinf/P            1.0000   1.7981   25.591
 P, BAR            12.159   6.7621  0.47512
 T, K             2539.58  2265.83  1322.86
 RHO, KG/CU M    1.6892 0 1.0530 0 1.2672-1
 H, KJ/KG         -139.65  -538.82 -1862.22
 U, KJ/KG         -859.44 -1181.03 -2237.16
 G, KJ/KG        -22925.6 -20868.6 -13731.4
 S, KJ/(KG)(K)     8.9723   8.9723   8.9723

 M, (1/n)          29.335   29.335   29.335
 Cp, KJ/(KG)(K)    1.4666   1.4492   1.3411
 GAMMAs            1.2396   1.2431   1.2680
 SON VEL,M/SEC      944.6    893.5    689.5
 MACH NUMBER        0.000    1.000    2.692

 PERFORMANCE PARAMETERS

 Ae/At                      1.0000   4.0000
 CSTAR, M/SEC               1292.4   1292.4
 CF                         0.6914   1.4362
 Ivac, M/SEC                1612.3   2058.1
 Isp, M/SEC                  893.5   1856.1

 MASS FRACTIONS

 *CO             0.00698   *CO2            0.23017   *H              0.00001
 HO2             0.00002   *H2             0.00007   H2O             0.08052
 *NO             0.01317   NO2             0.00004   *N2             0.58247
 *O              0.00075   *OH             0.00493   *O2             0.08088

  * THERMODYNAMIC PROPERTIES FITTED TO 20000.K

 NOTE. WEIGHT FRACTION OF FUEL IN TOTAL FUELS AND OF OXIDANT IN TOTAL OXIDANTS

           THEORETICAL ROCKET PERFORMANCE ASSUMING FROZEN COMPOSITION

 Pin =   191.0 PSIA
 CASE = _______________

             REACTANT                    WT FRACTION      ENERGY      TEMP
                                          (SEE NOTE)     KJ/KG-MOL      K  
 FUEL        paraffin                     1.0000000  -1860600.000    298.150
 OXIDANT     N2O                          1.0000000         0.000      0.000

 O/F=   12.30000  %FUEL=  7.518797  R,EQ.RATIO= 0.742970  PHI,EQ.RATIO= 0.742970

                 CHAMBER   THROAT     EXIT
 Pinf/P            1.0000   1.7980   25.586
 P, BAR            13.172   7.3259  0.51482
 T, K             2541.69  2267.81  1324.30
 RHO, KG/CU M    1.8288 0 1.1399 0 1.3718-1
 H, KJ/KG         -139.65  -539.08 -1863.43
 U, KJ/KG         -859.92 -1181.73 -2238.71
 G, KJ/KG        -22886.9 -20835.2 -13715.5
 S, KJ/(KG)(K)     8.9497   8.9497   8.9497

 M, (1/n)          29.340   29.340   29.340
 Cp, KJ/(KG)(K)    1.4668   1.4493   1.3414
 GAMMAs            1.2395   1.2430   1.2679
 SON VEL,M/SEC      944.9    893.8    689.8
 MACH NUMBER        0.000    1.000    2.692

 PERFORMANCE PARAMETERS

 Ae/At                      1.0000   4.0000
 CSTAR, M/SEC               1292.8   1292.8
 CF                         0.6913   1.4362
 Ivac, M/SEC                1612.8   2058.9
 Isp, M/SEC                  893.8   1856.8

 MASS FRACTIONS

 *CO             0.00679   *CO2            0.23047   *H              0.00001
 HO2             0.00002   *H2             0.00007   H2O             0.08058
 *NO             0.01321   NO2             0.00004   *N2             0.58245
 *O              0.00072   *OH             0.00487   *O2             0.08078

  * THERMODYNAMIC PROPERTIES FITTED TO 20000.K

 NOTE. WEIGHT FRACTION OF FUEL IN TOTAL FUELS AND OF OXIDANT IN TOTAL OXIDANTS

           THEORETICAL ROCKET PERFORMANCE ASSUMING FROZEN COMPOSITION

 Pin =   205.7 PSIA
 CASE = _______________

             REACTANT                    WT FRACTION      ENERGY      TEMP
                                          (SEE NOTE)     KJ/KG-MOL      K  
 FUEL        paraffin                     1.0000000  -1860600.000    298.150
 OXIDANT     N2O                          1.0000000         0.000      0.000

 O/F=   12.30000  %FUEL=  7.518797  R,EQ.RATIO= 0.742970  PHI,EQ.RATIO= 0.742970

                 CHAMBER   THROAT     EXIT
 Pinf/P            1.0000   1.7980   25.581
 P, BAR            14.185   7.8896  0.55453
 T, K             2543.62  2269.60  1325.61
 RHO, KG/CU M    1.9683 0 1.2269 0 1.4764-1
 H, KJ/KG         -139.65  -539.30 -1864.53
 U, KJ/KG         -860.35 -1182.37 -2240.13
 G, KJ/KG        -22850.7 -20803.8 -13700.5
 S, KJ/(KG)(K)     8.9287   8.9287   8.9287

 M, (1/n)          29.345   29.345   29.345
 Cp, KJ/(KG)(K)    1.4669   1.4495   1.3416
 GAMMAs            1.2394   1.2430   1.2677
 SON VEL,M/SEC      945.1    894.0    690.0
 MACH NUMBER        0.000    1.000    2.692

 PERFORMANCE PARAMETERS

 Ae/At                      1.0000   4.0000
 CSTAR, M/SEC               1293.3   1293.3
 CF                         0.6913   1.4362
 Ivac, M/SEC                1613.3   2059.6
 Isp, M/SEC                  894.0   1857.4

 MASS FRACTIONS

 *CO             0.00662   *CO2            0.23074   *H              0.00001
 HO2             0.00002   *H2             0.00006   H2O             0.08063
 *NO             0.01324   NO2             0.00004   *N2             0.58243
 *O              0.00070   *OH             0.00481   *O2             0.08070

  * THERMODYNAMIC PROPERTIES FITTED TO 20000.K

 NOTE. WEIGHT FRACTION OF FUEL IN TOTAL FUELS AND OF OXIDANT IN TOTAL OXIDANTS

           THEORETICAL ROCKET PERFORMANCE ASSUMING FROZEN COMPOSITION

 Pin =   220.4 PSIA
 CASE = _______________

             REACTANT                    WT FRACTION      ENERGY      TEMP
                                          (SEE NOTE)     KJ/KG-MOL      K  
 FUEL        paraffin                     1.0000000  -1860600.000    298.150
 OXIDANT     N2O                          1.0000000         0.000      0.000

 O/F=   12.30000  %FUEL=  7.518797  R,EQ.RATIO= 0.742970  PHI,EQ.RATIO= 0.742970

                 CHAMBER   THROAT     EXIT
 Pinf/P            1.0000   1.7979   25.577
 P, BAR            15.199   8.4534  0.59424
 T, K             2545.38  2271.25  1326.81
 RHO, KG/CU M    2.1077 0 1.3138 0 1.5809-1
 H, KJ/KG         -139.65  -539.51 -1865.54
 U, KJ/KG         -860.75 -1182.95 -2241.42
 G, KJ/KG        -22816.7 -20774.3 -13686.2
 S, KJ/(KG)(K)     8.9091   8.9091   8.9091

 M, (1/n)          29.349   29.349   29.349
 Cp, KJ/(KG)(K)    1.4670   1.4496   1.3418
 GAMMAs            1.2393   1.2429   1.2676
 SON VEL,M/SEC      945.3    894.3    690.3
 MACH NUMBER        0.000    1.000    2.692

 PERFORMANCE PARAMETERS

 Ae/At                      1.0000   4.0000
 CSTAR, M/SEC               1293.6   1293.6
 CF                         0.6913   1.4362
 Ivac, M/SEC                1613.8   2060.2
 Isp, M/SEC                  894.3   1857.9

 MASS FRACTIONS

 *CO             0.00646   *CO2            0.23098   *H              0.00001
 HO2             0.00002   *H2             0.00006   H2O             0.08068
 *NO             0.01328   NO2             0.00004   *N2             0.58241
 *O              0.00069   *OH             0.00475   *O2             0.08062

  * THERMODYNAMIC PROPERTIES FITTED TO 20000.K

 NOTE. WEIGHT FRACTION OF FUEL IN TOTAL FUELS AND OF OXIDANT IN TOTAL OXIDANTS

           THEORETICAL ROCKET PERFORMANCE ASSUMING FROZEN COMPOSITION

 Pin =   235.1 PSIA
 CASE = _______________

             REACTANT                    WT FRACTION      ENERGY      TEMP
                                          (SEE NOTE)     KJ/KG-MOL      K  
 FUEL        paraffin                     1.0000000  -1860600.000    298.150
 OXIDANT     N2O                          1.0000000         0.000      0.000

 O/F=   12.30000  %FUEL=  7.518797  R,EQ.RATIO= 0.742970  PHI,EQ.RATIO= 0.742970

                 CHAMBER   THROAT     EXIT
 Pinf/P            1.0000   1.7979   25.573
 P, BAR            16.212   9.0172  0.63396
 T, K             2547.01  2272.77  1327.92
 RHO, KG/CU M    2.2471 0 1.4006 0 1.6854-1
 H, KJ/KG         -139.65  -539.71 -1866.47
 U, KJ/KG         -861.12 -1183.49 -2242.62
 G, KJ/KG        -22784.7 -20746.5 -13672.7
 S, KJ/(KG)(K)     8.8908   8.8908   8.8908

 M, (1/n)          29.353   29.353   29.353
 Cp, KJ/(KG)(K)    1.4672   1.4498   1.3421
 GAMMAs            1.2393   1.2428   1.2675
 SON VEL,M/SEC      945.6    894.5    690.5
 MACH NUMBER        0.000    1.000    2.691

 PERFORMANCE PARAMETERS

 Ae/At                      1.0000   4.0000
 CSTAR, M/SEC               1294.0   1294.0
 CF                         0.6913   1.4362
 Ivac, M/SEC                1614.2   2060.8
 Isp, M/SEC                  894.5   1858.4

 MASS FRACTIONS

 *CO             0.00631   *CO2            0.23121   *H              0.00001
 HO2             0.00002   *H2             0.00006   H2O             0.08072
 *NO             0.01331   NO2             0.00004   *N2             0.58240
 *O              0.00067   *OH             0.00469   *O2             0.08055

  * THERMODYNAMIC PROPERTIES FITTED TO 20000.K

 NOTE. WEIGHT FRACTION OF FUEL IN TOTAL FUELS AND OF OXIDANT IN TOTAL OXIDANTS

           THEORETICAL ROCKET PERFORMANCE ASSUMING FROZEN COMPOSITION

 Pin =   249.8 PSIA
 CASE = _______________

             REACTANT                    WT FRACTION      ENERGY      TEMP
                                          (SEE NOTE)     KJ/KG-MOL      K  
 FUEL        paraffin                     1.0000000  -1860600.000    298.150
 OXIDANT     N2O                          1.0000000         0.000      0.000

 O/F=   12.30000  %FUEL=  7.518797  R,EQ.RATIO= 0.742970  PHI,EQ.RATIO= 0.742970

                 CHAMBER   THROAT     EXIT
 Pinf/P            1.0000   1.7979   25.569
 P, BAR            17.225   9.5809  0.67368
 T, K             2548.51  2274.17  1328.94
 RHO, KG/CU M    2.3864 0 1.4875 0 1.7899-1
 H, KJ/KG         -139.65  -539.88 -1867.33
 U, KJ/KG         -861.45 -1183.99 -2243.72
 G, KJ/KG        -22754.3 -20720.1 -13659.9
 S, KJ/(KG)(K)     8.8737   8.8737   8.8737

 M, (1/n)          29.356   29.356   29.356
 Cp, KJ/(KG)(K)    1.4673   1.4499   1.3422
 GAMMAs            1.2392   1.2428   1.2674
 SON VEL,M/SEC      945.8    894.7    690.7
 MACH NUMBER        0.000    1.000    2.691

 PERFORMANCE PARAMETERS

 Ae/At                      1.0000   4.0000
 CSTAR, M/SEC               1294.3   1294.3
 CF                         0.6912   1.4362
 Ivac, M/SEC                1614.6   2061.3
 Isp, M/SEC                  894.7   1858.9

 MASS FRACTIONS

 *CO             0.00618   *CO2            0.23142   *H              0.00001
 HO2             0.00002   *H2             0.00006   H2O             0.08076
 *NO             0.01333   NO2             0.00004   *N2             0.58239
 *O              0.00065   *OH             0.00464   *O2             0.08048

  * THERMODYNAMIC PROPERTIES FITTED TO 20000.K

 NOTE. WEIGHT FRACTION OF FUEL IN TOTAL FUELS AND OF OXIDANT IN TOTAL OXIDANTS

           THEORETICAL ROCKET PERFORMANCE ASSUMING FROZEN COMPOSITION

 Pin =   264.5 PSIA
 CASE = _______________

             REACTANT                    WT FRACTION      ENERGY      TEMP
                                          (SEE NOTE)     KJ/KG-MOL      K  
 FUEL        paraffin                     1.0000000  -1860600.000    298.150
 OXIDANT     N2O                          1.0000000         0.000      0.000

 O/F=   12.30000  %FUEL=  7.518797  R,EQ.RATIO= 0.742970  PHI,EQ.RATIO= 0.742970

                 CHAMBER   THROAT     EXIT
 Pinf/P            1.0000   1.7978   25.565
 P, BAR            18.238   10.145  0.71341
 T, K             2549.91  2275.48  1329.89
 RHO, KG/CU M    2.5257 0 1.5743 0 1.8943-1
 H, KJ/KG         -139.65  -540.05 -1868.13
 U, KJ/KG         -861.77 -1184.45 -2244.75
 G, KJ/KG        -22725.4 -20695.0 -13647.6
 S, KJ/(KG)(K)     8.8575   8.8575   8.8575

 M, (1/n)          29.360   29.360   29.360
 Cp, KJ/(KG)(K)    1.4674   1.4500   1.3424
 GAMMAs            1.2391   1.2427   1.2674
 SON VEL,M/SEC      945.9    894.9    690.9
 MACH NUMBER        0.000    1.000    2.691

 PERFORMANCE PARAMETERS

 Ae/At                      1.0000   4.0000
 CSTAR, M/SEC               1294.6   1294.6
 CF                         0.6912   1.4362
 Ivac, M/SEC                1615.0   2061.9
 Isp, M/SEC                  894.9   1859.3

 MASS FRACTIONS

 *CO             0.00606   *CO2            0.23161   *H              0.00001
 HO2             0.00002   *H2             0.00006   H2O             0.08080
 *NO             0.01336   NO2             0.00004   *N2             0.58237
 *O              0.00064   *OH             0.00460   *O2             0.08042

  * THERMODYNAMIC PROPERTIES FITTED TO 20000.K

 NOTE. WEIGHT FRACTION OF FUEL IN TOTAL FUELS AND OF OXIDANT IN TOTAL OXIDANTS

           THEORETICAL ROCKET PERFORMANCE ASSUMING FROZEN COMPOSITION

 Pin =   279.2 PSIA
 CASE = _______________

             REACTANT                    WT FRACTION      ENERGY      TEMP
                                          (SEE NOTE)     KJ/KG-MOL      K  
 FUEL        paraffin                     1.0000000  -1860600.000    298.150
 OXIDANT     N2O                          1.0000000         0.000      0.000

 O/F=   12.30000  %FUEL=  7.518797  R,EQ.RATIO= 0.742970  PHI,EQ.RATIO= 0.742970

                 CHAMBER   THROAT     EXIT
 Pinf/P            1.0000   1.7978   25.562
 P, BAR            19.252   10.709  0.75314
 T, K             2551.22  2276.70  1330.78
 RHO, KG/CU M    2.6649 0 1.6611 0 1.9986-1
 H, KJ/KG         -139.65  -540.20 -1868.88
 U, KJ/KG         -862.06 -1184.88 -2245.70
 G, KJ/KG        -22697.9 -20671.1 -13635.8
 S, KJ/(KG)(K)     8.8422   8.8422   8.8422

 M, (1/n)          29.363   29.363   29.363
 Cp, KJ/(KG)(K)    1.4675   1.4501   1.3426
 GAMMAs            1.2391   1.2427   1.2673
 SON VEL,M/SEC      946.1    895.0    691.0
 MACH NUMBER        0.000    1.000    2.691

 PERFORMANCE PARAMETERS

 Ae/At                      1.0000   4.0000
 CSTAR, M/SEC               1294.9   1294.9
 CF                         0.6912   1.4362
 Ivac, M/SEC                1615.3   2062.3
 Isp, M/SEC                  895.0   1859.7

 MASS FRACTIONS

 *CO             0.00594   *CO2            0.23180   *H              0.00001
 HO2             0.00002   *H2             0.00006   H2O             0.08084
 *NO             0.01339   NO2             0.00005   *N2             0.58236
 *O              0.00063   *OH             0.00455   *O2             0.08036

  * THERMODYNAMIC PROPERTIES FITTED TO 20000.K

 NOTE. WEIGHT FRACTION OF FUEL IN TOTAL FUELS AND OF OXIDANT IN TOTAL OXIDANTS

           THEORETICAL ROCKET PERFORMANCE ASSUMING FROZEN COMPOSITION

 Pin =   293.9 PSIA
 CASE = _______________

             REACTANT                    WT FRACTION      ENERGY      TEMP
                                          (SEE NOTE)     KJ/KG-MOL      K  
 FUEL        paraffin                     1.0000000  -1860600.000    298.150
 OXIDANT     N2O                          1.0000000         0.000      0.000

 O/F=   12.30000  %FUEL=  7.518797  R,EQ.RATIO= 0.742970  PHI,EQ.RATIO= 0.742970

                 CHAMBER   THROAT     EXIT
 Pinf/P            1.0000   1.7978   25.559
 P, BAR            20.265   11.272  0.79287
 T, K             2552.44  2277.84  1331.61
 RHO, KG/CU M    2.8041 0 1.7478 0 2.1030-1
 H, KJ/KG         -139.65  -540.35 -1869.58
 U, KJ/KG         -862.34 -1185.29 -2246.60
 G, KJ/KG        -22671.7 -20648.3 -13624.6
 S, KJ/(KG)(K)     8.8276   8.8276   8.8276

 M, (1/n)          29.366   29.366   29.366
 Cp, KJ/(KG)(K)    1.4676   1.4502   1.3428
 GAMMAs            1.2391   1.2426   1.2672
 SON VEL,M/SEC      946.3    895.2    691.2
 MACH NUMBER        0.000    1.000    2.691

 PERFORMANCE PARAMETERS

 Ae/At                      1.0000   4.0000
 CSTAR, M/SEC               1295.2   1295.2
 CF                         0.6912   1.4362
 Ivac, M/SEC                1615.6   2062.8
 Isp, M/SEC                  895.2   1860.1

 MASS FRACTIONS

 *CO             0.00583   *CO2            0.23197   *H              0.00001
 HO2             0.00002   *H2             0.00006   H2O             0.08087
 *NO             0.01341   NO2             0.00005   *N2             0.58235
 *O              0.00061   *OH             0.00451   *O2             0.08031

  * THERMODYNAMIC PROPERTIES FITTED TO 20000.K

 NOTE. WEIGHT FRACTION OF FUEL IN TOTAL FUELS AND OF OXIDANT IN TOTAL OXIDANTS

           THEORETICAL ROCKET PERFORMANCE ASSUMING FROZEN COMPOSITION

 Pin =   308.6 PSIA
 CASE = _______________

             REACTANT                    WT FRACTION      ENERGY      TEMP
                                          (SEE NOTE)     KJ/KG-MOL      K  
 FUEL        paraffin                     1.0000000  -1860600.000    298.150
 OXIDANT     N2O                          1.0000000         0.000      0.000

 O/F=   12.30000  %FUEL=  7.518797  R,EQ.RATIO= 0.742970  PHI,EQ.RATIO= 0.742970

                 CHAMBER   THROAT     EXIT
 Pinf/P            1.0000   1.7977   25.556
 P, BAR            21.278   11.836  0.83261
 T, K             2553.59  2278.91  1332.39
 RHO, KG/CU M    2.9433 0 1.8345 0 2.2073-1
 H, KJ/KG         -139.65  -540.48 -1870.23
 U, KJ/KG         -862.59 -1185.67 -2247.44
 G, KJ/KG        -22646.6 -20626.4 -13613.7
 S, KJ/(KG)(K)     8.8138   8.8138   8.8138

 M, (1/n)          29.369   29.369   29.369
 Cp, KJ/(KG)(K)    1.4676   1.4503   1.3429
 GAMMAs            1.2390   1.2426   1.2671
 SON VEL,M/SEC      946.4    895.4    691.4
 MACH NUMBER        0.000    1.000    2.691

 PERFORMANCE PARAMETERS

 Ae/At                      1.0000   4.0000
 CSTAR, M/SEC               1295.4   1295.4
 CF                         0.6912   1.4362
 Ivac, M/SEC                1615.9   2063.2
 Isp, M/SEC                  895.4   1860.4

 MASS FRACTIONS

 *CO             0.00573   *CO2            0.23213   *H              0.00001
 HO2             0.00002   *H2             0.00006   H2O             0.08090
 *NO             0.01343   NO2             0.00005   *N2             0.58234
 *O              0.00060   *OH             0.00447   *O2             0.08026

  * THERMODYNAMIC PROPERTIES FITTED TO 20000.K

 NOTE. WEIGHT FRACTION OF FUEL IN TOTAL FUELS AND OF OXIDANT IN TOTAL OXIDANTS

           THEORETICAL ROCKET PERFORMANCE ASSUMING FROZEN COMPOSITION

 Pin =   323.3 PSIA
 CASE = _______________

             REACTANT                    WT FRACTION      ENERGY      TEMP
                                          (SEE NOTE)     KJ/KG-MOL      K  
 FUEL        paraffin                     1.0000000  -1860600.000    298.150
 OXIDANT     N2O                          1.0000000         0.000      0.000

 O/F=   12.30000  %FUEL=  7.518797  R,EQ.RATIO= 0.742970  PHI,EQ.RATIO= 0.742970

                 CHAMBER   THROAT     EXIT
 Pinf/P            1.0000   1.7977   25.553
 P, BAR            22.291   12.400  0.87235
 T, K             2554.68  2279.93  1333.13
 RHO, KG/CU M    3.0824 0 1.9212 0 2.3115-1
 H, KJ/KG         -139.65  -540.61 -1870.85
 U, KJ/KG         -862.84 -1186.02 -2248.24
 G, KJ/KG        -22622.5 -20605.4 -13603.3
 S, KJ/(KG)(K)     8.8006   8.8006   8.8006

 M, (1/n)          29.371   29.371   29.371
 Cp, KJ/(KG)(K)    1.4677   1.4504   1.3431
 GAMMAs            1.2390   1.2425   1.2671
 SON VEL,M/SEC      946.6    895.5    691.5
 MACH NUMBER        0.000    1.000    2.691

 PERFORMANCE PARAMETERS

 Ae/At                      1.0000   4.0000
 CSTAR, M/SEC               1295.7   1295.7
 CF                         0.6912   1.4362
 Ivac, M/SEC                1616.2   2063.6
 Isp, M/SEC                  895.5   1860.8

 MASS FRACTIONS

 *CO             0.00564   *CO2            0.23228   *H              0.00001
 HO2             0.00002   *H2             0.00005   H2O             0.08093
 *NO             0.01345   NO2             0.00005   *N2             0.58233
 *O              0.00059   *OH             0.00444   *O2             0.08021

  * THERMODYNAMIC PROPERTIES FITTED TO 20000.K

 NOTE. WEIGHT FRACTION OF FUEL IN TOTAL FUELS AND OF OXIDANT IN TOTAL OXIDANTS

           THEORETICAL ROCKET PERFORMANCE ASSUMING FROZEN COMPOSITION

 Pin =   338.0 PSIA
 CASE = _______________

             REACTANT                    WT FRACTION      ENERGY      TEMP
                                          (SEE NOTE)     KJ/KG-MOL      K  
 FUEL        paraffin                     1.0000000  -1860600.000    298.150
 OXIDANT     N2O                          1.0000000         0.000      0.000

 O/F=   12.30000  %FUEL=  7.518797  R,EQ.RATIO= 0.742970  PHI,EQ.RATIO= 0.742970

                 CHAMBER   THROAT     EXIT
 Pinf/P            1.0000   1.7977   25.551
 P, BAR            23.305   12.964  0.91209
 T, K             2555.70  2280.88  1333.83
 RHO, KG/CU M    3.2215 0 2.0079 0 2.4158-1
 H, KJ/KG         -139.65  -540.73 -1871.43
 U, KJ/KG         -863.07 -1186.36 -2248.99
 G, KJ/KG        -22599.3 -20585.3 -13593.2
 S, KJ/(KG)(K)     8.7881   8.7881   8.7881

 M, (1/n)          29.374   29.374   29.374
 Cp, KJ/(KG)(K)    1.4678   1.4505   1.3432
 GAMMAs            1.2389   1.2425   1.2670
 SON VEL,M/SEC      946.7    895.6    691.6
 MACH NUMBER        0.000    1.000    2.691

 PERFORMANCE PARAMETERS

 Ae/At                      1.0000   4.0000
 CSTAR, M/SEC               1295.9   1295.9
 CF                         0.6911   1.4361
 Ivac, M/SEC                1616.5   2063.9
 Isp, M/SEC                  895.6   1861.1

 MASS FRACTIONS

 *CO             0.00554   *CO2            0.23242   *H              0.00001
 HO2             0.00002   *H2             0.00005   H2O             0.08096
 *NO             0.01347   NO2             0.00005   *N2             0.58232
 *O              0.00058   *OH             0.00440   *O2             0.08017

  * THERMODYNAMIC PROPERTIES FITTED TO 20000.K

 NOTE. WEIGHT FRACTION OF FUEL IN TOTAL FUELS AND OF OXIDANT IN TOTAL OXIDANTS

           THEORETICAL ROCKET PERFORMANCE ASSUMING FROZEN COMPOSITION

 Pin =   352.7 PSIA
 CASE = _______________

             REACTANT                    WT FRACTION      ENERGY      TEMP
                                          (SEE NOTE)     KJ/KG-MOL      K  
 FUEL        paraffin                     1.0000000  -1860600.000    298.150
 OXIDANT     N2O                          1.0000000         0.000      0.000

 O/F=   12.30000  %FUEL=  7.518797  R,EQ.RATIO= 0.742970  PHI,EQ.RATIO= 0.742970

                 CHAMBER   THROAT     EXIT
 Pinf/P            1.0000   1.7977   25.548
 P, BAR            24.318   13.528  0.95184
 T, K             2556.67  2281.79  1334.49
 RHO, KG/CU M    3.3605 0 2.0946 0 2.5200-1
 H, KJ/KG         -139.65  -540.85 -1871.99
 U, KJ/KG         -863.28 -1186.68 -2249.70
 G, KJ/KG        -22577.0 -20565.9 -13583.5
 S, KJ/(KG)(K)     8.7760   8.7760   8.7760

 M, (1/n)          29.376   29.376   29.376
 Cp, KJ/(KG)(K)    1.4679   1.4506   1.3433
 GAMMAs            1.2389   1.2424   1.2669
 SON VEL,M/SEC      946.8    895.8    691.8
 MACH NUMBER        0.000    1.000    2.691

 PERFORMANCE PARAMETERS

 Ae/At                      1.0000   4.0000
 CSTAR, M/SEC               1296.1   1296.1
 CF                         0.6911   1.4361
 Ivac, M/SEC                1616.8   2064.3
 Isp, M/SEC                  895.8   1861.4

 MASS FRACTIONS

 *CO             0.00546   *CO2            0.23255   *H              0.00001
 HO2             0.00002   *H2             0.00005   H2O             0.08099
 *NO             0.01349   NO2             0.00005   *N2             0.58231
 *O              0.00057   *OH             0.00437   *O2             0.08012

  * THERMODYNAMIC PROPERTIES FITTED TO 20000.K

 NOTE. WEIGHT FRACTION OF FUEL IN TOTAL FUELS AND OF OXIDANT IN TOTAL OXIDANTS

           THEORETICAL ROCKET PERFORMANCE ASSUMING FROZEN COMPOSITION

 Pin =    14.7 PSIA
 CASE = _______________

             REACTANT                    WT FRACTION      ENERGY      TEMP
                                          (SEE NOTE)     KJ/KG-MOL      K  
 FUEL        paraffin                     1.0000000  -1860600.000    298.150
 OXIDANT     N2O                          1.0000000         0.000      0.000

 O/F=   12.50000  %FUEL=  7.407407  R,EQ.RATIO= 0.731082  PHI,EQ.RATIO= 0.731082

                 CHAMBER   THROAT     EXIT
 Pinf/P            1.0000   1.8005   25.834
 P, BAR            1.0132  0.56275  0.03922
 T, K             2441.48  2174.54  1257.23
 RHO, KG/CU M    1.4558-1 9.0777-2 1.0943-2
 H, KJ/KG         -137.58  -524.14 -1800.13
 U, KJ/KG         -833.60 -1144.07 -2158.55
 G, KJ/KG        -23719.9 -21528.1 -13943.8
 S, KJ/(KG)(K)     9.6590   9.6590   9.6590

 M, (1/n)          29.165   29.165   29.165
 Cp, KJ/(KG)(K)    1.4569   1.4387   1.3262
 GAMMAs            1.2433   1.2471   1.2738
 SON VEL,M/SEC      930.2    879.3    675.7
 MACH NUMBER        0.000    1.000    2.699

 PERFORMANCE PARAMETERS

 Ae/At                      1.0000   4.0000
 CSTAR, M/SEC               1269.5   1269.5
 CF                         0.6926   1.4364
 Ivac, M/SEC                1584.3   2020.0
 Isp, M/SEC                  879.3   1823.5

 MASS FRACTIONS

 *CO             0.01297   *CO2            0.21718   *H              0.00003
 HO2             0.00001   *H2             0.00014   H2O             0.07752
 *NO             0.01157   NO2             0.00001   *N2             0.58393
 *O              0.00167   *OH             0.00680   *O2             0.08818

  * THERMODYNAMIC PROPERTIES FITTED TO 20000.K

 NOTE. WEIGHT FRACTION OF FUEL IN TOTAL FUELS AND OF OXIDANT IN TOTAL OXIDANTS

           THEORETICAL ROCKET PERFORMANCE ASSUMING FROZEN COMPOSITION

 Pin =    29.4 PSIA
 CASE = _______________

             REACTANT                    WT FRACTION      ENERGY      TEMP
                                          (SEE NOTE)     KJ/KG-MOL      K  
 FUEL        paraffin                     1.0000000  -1860600.000    298.150
 OXIDANT     N2O                          1.0000000         0.000      0.000

 O/F=   12.50000  %FUEL=  7.407407  R,EQ.RATIO= 0.731082  PHI,EQ.RATIO= 0.731082

                 CHAMBER   THROAT     EXIT
 Pinf/P            1.0000   1.7999   25.767
 P, BAR            2.0265   1.1259  0.07865
 T, K             2466.95  2198.27  1274.36
 RHO, KG/CU M    2.8874-1 1.8003-1 2.1693-2
 H, KJ/KG         -137.58  -527.21 -1814.87
 U, KJ/KG         -839.41 -1152.60 -2177.42
 G, KJ/KG        -23479.0 -21326.5 -13872.4
 S, KJ/(KG)(K)     9.4616   9.4616   9.4616

 M, (1/n)          29.226   29.226   29.226
 Cp, KJ/(KG)(K)    1.4589   1.4408   1.3296
 GAMMAs            1.2423   1.2460   1.2722
 SON VEL,M/SEC      933.7    882.8    679.1
 MACH NUMBER        0.000    1.000    2.697

 PERFORMANCE PARAMETERS

 Ae/At                      1.0000   4.0000
 CSTAR, M/SEC               1275.1   1275.1
 CF                         0.6923   1.4364
 Ivac, M/SEC                1591.2   2029.5
 Isp, M/SEC                  882.8   1831.6

 MASS FRACTIONS

 *CO             0.01078   *CO2            0.22062   *H              0.00002
 HO2             0.00001   *H2             0.00011   H2O             0.07813
 *NO             0.01204   NO2             0.00002   *N2             0.58371
 *O              0.00133   *OH             0.00620   *O2             0.08702

  * THERMODYNAMIC PROPERTIES FITTED TO 20000.K

 NOTE. WEIGHT FRACTION OF FUEL IN TOTAL FUELS AND OF OXIDANT IN TOTAL OXIDANTS

           THEORETICAL ROCKET PERFORMANCE ASSUMING FROZEN COMPOSITION

 Pin =    44.1 PSIA
 CASE = _______________

             REACTANT                    WT FRACTION      ENERGY      TEMP
                                          (SEE NOTE)     KJ/KG-MOL      K  
 FUEL        paraffin                     1.0000000  -1860600.000    298.150
 OXIDANT     N2O                          1.0000000         0.000      0.000

 O/F=   12.50000  %FUEL=  7.407407  R,EQ.RATIO= 0.731082  PHI,EQ.RATIO= 0.731082

                 CHAMBER   THROAT     EXIT
 Pinf/P            1.0000   1.7995   25.732
 P, BAR            3.0397   1.6892  0.11813
 T, K             2480.65  2211.04  1283.60
 RHO, KG/CU M    4.3120-1 2.6884-1 3.2386-2
 H, KJ/KG         -137.58  -528.85 -1822.77
 U, KJ/KG         -842.52 -1157.18 -2187.54
 G, KJ/KG        -23322.6 -21194.0 -13819.7
 S, KJ/(KG)(K)     9.3464   9.3464   9.3464

 M, (1/n)          29.258   29.258   29.258
 Cp, KJ/(KG)(K)    1.4599   1.4420   1.3314
 GAMMAs            1.2417   1.2454   1.2714
 SON VEL,M/SEC      935.6    884.6    681.0
 MACH NUMBER        0.000    1.000    2.696

 PERFORMANCE PARAMETERS

 Ae/At                      1.0000   4.0000
 CSTAR, M/SEC               1278.2   1278.2
 CF                         0.6921   1.4363
 Ivac, M/SEC                1594.9   2034.6
 Isp, M/SEC                  884.6   1835.9

 MASS FRACTIONS

 *CO             0.00959   *CO2            0.22250   *H              0.00002
 HO2             0.00001   *H2             0.00010   H2O             0.07847
 *NO             0.01229   NO2             0.00002   *N2             0.58359
 *O              0.00116   *OH             0.00585   *O2             0.08641

  * THERMODYNAMIC PROPERTIES FITTED TO 20000.K

 NOTE. WEIGHT FRACTION OF FUEL IN TOTAL FUELS AND OF OXIDANT IN TOTAL OXIDANTS

           THEORETICAL ROCKET PERFORMANCE ASSUMING FROZEN COMPOSITION

 Pin =    58.8 PSIA
 CASE = _______________

             REACTANT                    WT FRACTION      ENERGY      TEMP
                                          (SEE NOTE)     KJ/KG-MOL      K  
 FUEL        paraffin                     1.0000000  -1860600.000    298.150
 OXIDANT     N2O                          1.0000000         0.000      0.000

 O/F=   12.50000  %FUEL=  7.407407  R,EQ.RATIO= 0.731082  PHI,EQ.RATIO= 0.731082

                 CHAMBER   THROAT     EXIT
 Pinf/P            1.0000   1.7993   25.708
 P, BAR            4.0530   2.2526  0.15766
 T, K             2489.81  2219.57  1289.78
 RHO, KG/CU M    5.7325-1 3.5739-1 4.3045-2
 H, KJ/KG         -137.58  -529.95 -1828.05
 U, KJ/KG         -844.60 -1160.24 -2194.30
 G, KJ/KG        -23204.8 -21093.5 -13777.4
 S, KJ/(KG)(K)     9.2646   9.2646   9.2646

 M, (1/n)          29.280   29.280   29.280
 Cp, KJ/(KG)(K)    1.4606   1.4427   1.3326
 GAMMAs            1.2413   1.2451   1.2708
 SON VEL,M/SEC      936.8    885.9    682.2
 MACH NUMBER        0.000    1.000    2.695

 PERFORMANCE PARAMETERS

 Ae/At                      1.0000   4.0000
 CSTAR, M/SEC               1280.2   1280.2
 CF                         0.6920   1.4363
 Ivac, M/SEC                1597.4   2037.9
 Isp, M/SEC                  885.9   1838.7

 MASS FRACTIONS

 *CO             0.00879   *CO2            0.22375   *H              0.00001
 HO2             0.00001   *H2             0.00009   H2O             0.07870
 *NO             0.01246   NO2             0.00002   *N2             0.58351
 *O              0.00105   *OH             0.00560   *O2             0.08599

  * THERMODYNAMIC PROPERTIES FITTED TO 20000.K

 NOTE. WEIGHT FRACTION OF FUEL IN TOTAL FUELS AND OF OXIDANT IN TOTAL OXIDANTS

           THEORETICAL ROCKET PERFORMANCE ASSUMING FROZEN COMPOSITION

 Pin =    73.5 PSIA
 CASE = _______________

             REACTANT                    WT FRACTION      ENERGY      TEMP
                                          (SEE NOTE)     KJ/KG-MOL      K  
 FUEL        paraffin                     1.0000000  -1860600.000    298.150
 OXIDANT     N2O                          1.0000000         0.000      0.000

 O/F=   12.50000  %FUEL=  7.407407  R,EQ.RATIO= 0.731082  PHI,EQ.RATIO= 0.731082

                 CHAMBER   THROAT     EXIT
 Pinf/P            1.0000   1.7991   25.690
 P, BAR            5.0663   2.8160  0.19720
 T, K             2496.58  2225.89  1294.36
 RHO, KG/CU M    7.1501-1 4.4576-1 5.3682-2
 H, KJ/KG         -137.58  -530.76 -1831.95
 U, KJ/KG         -846.14 -1162.49 -2199.30
 G, KJ/KG        -23109.4 -21011.8 -13741.7
 S, KJ/(KG)(K)     9.2013   9.2013   9.2013

 M, (1/n)          29.296   29.296   29.296
 Cp, KJ/(KG)(K)    1.4611   1.4433   1.3335
 GAMMAs            1.2411   1.2448   1.2704
 SON VEL,M/SEC      937.8    886.8    683.1
 MACH NUMBER        0.000    1.000    2.695

 PERFORMANCE PARAMETERS

 Ae/At                      1.0000   4.0000
 CSTAR, M/SEC               1281.7   1281.7
 CF                         0.6919   1.4363
 Ivac, M/SEC                1599.2   2040.4
 Isp, M/SEC                  886.8   1840.9

 MASS FRACTIONS

 *CO             0.00819   *CO2            0.22468   *H              0.00001
 HO2             0.00001   *H2             0.00008   H2O             0.07887
 *NO             0.01259   NO2             0.00002   *N2             0.58345
 *O              0.00097   *OH             0.00541   *O2             0.08569

  * THERMODYNAMIC PROPERTIES FITTED TO 20000.K

 NOTE. WEIGHT FRACTION OF FUEL IN TOTAL FUELS AND OF OXIDANT IN TOTAL OXIDANTS

           THEORETICAL ROCKET PERFORMANCE ASSUMING FROZEN COMPOSITION

 Pin =    88.2 PSIA
 CASE = _______________

             REACTANT                    WT FRACTION      ENERGY      TEMP
                                          (SEE NOTE)     KJ/KG-MOL      K  
 FUEL        paraffin                     1.0000000  -1860600.000    298.150
 OXIDANT     N2O                          1.0000000         0.000      0.000

 O/F=   12.50000  %FUEL=  7.407407  R,EQ.RATIO= 0.731082  PHI,EQ.RATIO= 0.731082

                 CHAMBER   THROAT     EXIT
 Pinf/P            1.0000   1.7990   25.677
 P, BAR            6.0795   3.3794  0.23677
 T, K             2501.91  2230.86  1297.96
 RHO, KG/CU M    8.5655-1 5.3399-1 6.4302-2
 H, KJ/KG         -137.58  -531.40 -1835.01
 U, KJ/KG         -847.34 -1164.26 -2203.22
 G, KJ/KG        -23028.9 -20942.7 -13710.7
 S, KJ/(KG)(K)     9.1496   9.1496   9.1496

 M, (1/n)          29.309   29.309   29.309
 Cp, KJ/(KG)(K)    1.4615   1.4437   1.3342
 GAMMAs            1.2409   1.2445   1.2700
 SON VEL,M/SEC      938.5    887.5    683.8
 MACH NUMBER        0.000    1.000    2.694

 PERFORMANCE PARAMETERS

 Ae/At                      1.0000   4.0000
 CSTAR, M/SEC               1282.8   1282.8
 CF                         0.6918   1.4363
 Ivac, M/SEC                1600.6   2042.4
 Isp, M/SEC                  887.5   1842.5

 MASS FRACTIONS

 *CO             0.00773   *CO2            0.22542   *H              0.00001
 HO2             0.00001   *H2             0.00008   H2O             0.07901
 *NO             0.01269   NO2             0.00003   *N2             0.58340
 *O              0.00091   *OH             0.00526   *O2             0.08546

  * THERMODYNAMIC PROPERTIES FITTED TO 20000.K

 NOTE. WEIGHT FRACTION OF FUEL IN TOTAL FUELS AND OF OXIDANT IN TOTAL OXIDANTS

           THEORETICAL ROCKET PERFORMANCE ASSUMING FROZEN COMPOSITION

 Pin =   102.9 PSIA
 CASE = _______________

             REACTANT                    WT FRACTION      ENERGY      TEMP
                                          (SEE NOTE)     KJ/KG-MOL      K  
 FUEL        paraffin                     1.0000000  -1860600.000    298.150
 OXIDANT     N2O                          1.0000000         0.000      0.000

 O/F=   12.50000  %FUEL=  7.407407  R,EQ.RATIO= 0.731082  PHI,EQ.RATIO= 0.731082

                 CHAMBER   THROAT     EXIT
 Pinf/P            1.0000   1.7989   25.666
 P, BAR            7.0927   3.9429  0.27635
 T, K             2506.26  2234.91  1300.90
 RHO, KG/CU M    9.9793-1 6.2212-1 7.4908-2
 H, KJ/KG         -137.58  -531.92 -1837.50
 U, KJ/KG         -848.32 -1165.71 -2206.42
 G, KJ/KG        -22959.1 -20882.6 -13683.3
 S, KJ/(KG)(K)     9.1058   9.1058   9.1058

 M, (1/n)          29.319   29.319   29.319
 Cp, KJ/(KG)(K)    1.4618   1.4441   1.3348
 GAMMAs            1.2407   1.2444   1.2698
 SON VEL,M/SEC      939.1    888.1    684.4
 MACH NUMBER        0.000    1.000    2.694

 PERFORMANCE PARAMETERS

 Ae/At                      1.0000   4.0000
 CSTAR, M/SEC               1283.8   1283.8
 CF                         0.6918   1.4363
 Ivac, M/SEC                1601.7   2043.9
 Isp, M/SEC                  888.1   1843.9

 MASS FRACTIONS

 *CO             0.00735   *CO2            0.22601   *H              0.00001
 HO2             0.00001   *H2             0.00007   H2O             0.07912
 *NO             0.01277   NO2             0.00003   *N2             0.58336
 *O              0.00086   *OH             0.00513   *O2             0.08526

  * THERMODYNAMIC PROPERTIES FITTED TO 20000.K

 NOTE. WEIGHT FRACTION OF FUEL IN TOTAL FUELS AND OF OXIDANT IN TOTAL OXIDANTS

           THEORETICAL ROCKET PERFORMANCE ASSUMING FROZEN COMPOSITION

 Pin =   117.6 PSIA
 CASE = _______________

             REACTANT                    WT FRACTION      ENERGY      TEMP
                                          (SEE NOTE)     KJ/KG-MOL      K  
 FUEL        paraffin                     1.0000000  -1860600.000    298.150
 OXIDANT     N2O                          1.0000000         0.000      0.000

 O/F=   12.50000  %FUEL=  7.407407  R,EQ.RATIO= 0.731082  PHI,EQ.RATIO= 0.731082

                 CHAMBER   THROAT     EXIT
 Pinf/P            1.0000   1.7988   25.656
 P, BAR            8.1060   4.5064  0.31595
 T, K             2509.91  2238.32  1303.38
 RHO, KG/CU M    1.1392 0 7.1015-1 8.5503-2
 H, KJ/KG         -137.58  -532.35 -1839.60
 U, KJ/KG         -849.15 -1166.93 -2209.12
 G, KJ/KG        -22897.4 -20829.4 -13658.6
 S, KJ/(KG)(K)     9.0680   9.0680   9.0680

 M, (1/n)          29.328   29.328   29.328
 Cp, KJ/(KG)(K)    1.4621   1.4444   1.3353
 GAMMAs            1.2406   1.2442   1.2695
 SON VEL,M/SEC      939.5    888.6    684.9
 MACH NUMBER        0.000    1.000    2.694

 PERFORMANCE PARAMETERS

 Ae/At                      1.0000   4.0000
 CSTAR, M/SEC               1284.6   1284.6
 CF                         0.6917   1.4363
 Ivac, M/SEC                1602.7   2045.3
 Isp, M/SEC                  888.6   1845.0

 MASS FRACTIONS

 *CO             0.00703   *CO2            0.22652   *H              0.00001
 HO2             0.00002   *H2             0.00007   H2O             0.07922
 *NO             0.01284   NO2             0.00003   *N2             0.58333
 *O              0.00081   *OH             0.00502   *O2             0.08510

  * THERMODYNAMIC PROPERTIES FITTED TO 20000.K

 NOTE. WEIGHT FRACTION OF FUEL IN TOTAL FUELS AND OF OXIDANT IN TOTAL OXIDANTS

           THEORETICAL ROCKET PERFORMANCE ASSUMING FROZEN COMPOSITION

 Pin =   132.3 PSIA
 CASE = _______________

             REACTANT                    WT FRACTION      ENERGY      TEMP
                                          (SEE NOTE)     KJ/KG-MOL      K  
 FUEL        paraffin                     1.0000000  -1860600.000    298.150
 OXIDANT     N2O                          1.0000000         0.000      0.000

 O/F=   12.50000  %FUEL=  7.407407  R,EQ.RATIO= 0.731082  PHI,EQ.RATIO= 0.731082

                 CHAMBER   THROAT     EXIT
 Pinf/P            1.0000   1.7987   25.648
 P, BAR            9.1192   5.0700  0.35555
 T, K             2513.05  2241.25  1305.50
 RHO, KG/CU M    1.2803 0 7.9812-1 9.6089-2
 H, KJ/KG         -137.58  -532.73 -1841.40
 U, KJ/KG         -849.86 -1167.97 -2211.43
 G, KJ/KG        -22842.0 -20781.5 -13636.1
 S, KJ/(KG)(K)     9.0346   9.0346   9.0346

 M, (1/n)          29.335   29.335   29.335
 Cp, KJ/(KG)(K)    1.4623   1.4447   1.3357
 GAMMAs            1.2404   1.2441   1.2694
 SON VEL,M/SEC      940.0    889.0    685.3
 MACH NUMBER        0.000    1.000    2.694

 PERFORMANCE PARAMETERS

 Ae/At                      1.0000   4.0000
 CSTAR, M/SEC               1285.3   1285.3
 CF                         0.6917   1.4362
 Ivac, M/SEC                1603.6   2046.4
 Isp, M/SEC                  889.0   1846.0

 MASS FRACTIONS

 *CO             0.00675   *CO2            0.22695   *H              0.00001
 HO2             0.00002   *H2             0.00007   H2O             0.07930
 *NO             0.01290   NO2             0.00003   *N2             0.58330
 *O              0.00078   *OH             0.00492   *O2             0.08497

  * THERMODYNAMIC PROPERTIES FITTED TO 20000.K

 NOTE. WEIGHT FRACTION OF FUEL IN TOTAL FUELS AND OF OXIDANT IN TOTAL OXIDANTS

           THEORETICAL ROCKET PERFORMANCE ASSUMING FROZEN COMPOSITION

 Pin =   147.0 PSIA
 CASE = _______________

             REACTANT                    WT FRACTION      ENERGY      TEMP
                                          (SEE NOTE)     KJ/KG-MOL      K  
 FUEL        paraffin                     1.0000000  -1860600.000    298.150
 OXIDANT     N2O                          1.0000000         0.000      0.000

 O/F=   12.50000  %FUEL=  7.407407  R,EQ.RATIO= 0.731082  PHI,EQ.RATIO= 0.731082

                 CHAMBER   THROAT     EXIT
 Pinf/P            1.0000   1.7986   25.641
 P, BAR            10.133   5.6335  0.39516
 T, K             2515.79  2243.80  1307.36
 RHO, KG/CU M    1.4213 0 8.8602-1 1.0667-1
 H, KJ/KG         -137.58  -533.05 -1842.98
 U, KJ/KG         -850.48 -1168.88 -2213.44
 G, KJ/KG        -22791.6 -20737.9 -13615.4
 S, KJ/(KG)(K)     9.0047   9.0047   9.0047

 M, (1/n)          29.342   29.342   29.342
 Cp, KJ/(KG)(K)    1.4625   1.4449   1.3361
 GAMMAs            1.2403   1.2440   1.2692
 SON VEL,M/SEC      940.3    889.4    685.7
 MACH NUMBER        0.000    1.000    2.693

 PERFORMANCE PARAMETERS

 Ae/At                      1.0000   4.0000
 CSTAR, M/SEC               1285.9   1285.9
 CF                         0.6916   1.4362
 Ivac, M/SEC                1604.3   2047.4
 Isp, M/SEC                  889.4   1846.8

 MASS FRACTIONS

 *CO             0.00651   *CO2            0.22732   *H              0.00001
 HO2             0.00002   *H2             0.00006   H2O             0.07938
 *NO             0.01296   NO2             0.00003   *N2             0.58328
 *O              0.00075   *OH             0.00483   *O2             0.08485

  * THERMODYNAMIC PROPERTIES FITTED TO 20000.K

 NOTE. WEIGHT FRACTION OF FUEL IN TOTAL FUELS AND OF OXIDANT IN TOTAL OXIDANTS

           THEORETICAL ROCKET PERFORMANCE ASSUMING FROZEN COMPOSITION

 Pin =   161.7 PSIA
 CASE = _______________

             REACTANT                    WT FRACTION      ENERGY      TEMP
                                          (SEE NOTE)     KJ/KG-MOL      K  
 FUEL        paraffin                     1.0000000  -1860600.000    298.150
 OXIDANT     N2O                          1.0000000         0.000      0.000

 O/F=   12.50000  %FUEL=  7.407407  R,EQ.RATIO= 0.731082  PHI,EQ.RATIO= 0.731082

                 CHAMBER   THROAT     EXIT
 Pinf/P            1.0000   1.7985   25.635
 P, BAR            11.146   6.1971  0.43478
 T, K             2518.21  2246.06  1309.00
 RHO, KG/CU M    1.5622 0 9.7387-1 1.1724-1
 H, KJ/KG         -137.58  -533.34 -1844.36
 U, KJ/KG         -851.02 -1169.68 -2215.22
 G, KJ/KG        -22745.4 -20697.9 -13596.2
 S, KJ/(KG)(K)     8.9777   8.9777   8.9777

 M, (1/n)          29.347   29.347   29.347
 Cp, KJ/(KG)(K)    1.4627   1.4451   1.3364
 GAMMAs            1.2402   1.2439   1.2690
 SON VEL,M/SEC      940.7    889.7    686.0
 MACH NUMBER        0.000    1.000    2.693

 PERFORMANCE PARAMETERS

 Ae/At                      1.0000   4.0000
 CSTAR, M/SEC               1286.4   1286.4
 CF                         0.6916   1.4362
 Ivac, M/SEC                1604.9   2048.3
 Isp, M/SEC                  889.7   1847.6

 MASS FRACTIONS

 *CO             0.00630   *CO2            0.22766   *H              0.00001
 HO2             0.00002   *H2             0.00006   H2O             0.07944
 *NO             0.01300   NO2             0.00004   *N2             0.58325
 *O              0.00072   *OH             0.00475   *O2             0.08474

  * THERMODYNAMIC PROPERTIES FITTED TO 20000.K

 NOTE. WEIGHT FRACTION OF FUEL IN TOTAL FUELS AND OF OXIDANT IN TOTAL OXIDANTS

           THEORETICAL ROCKET PERFORMANCE ASSUMING FROZEN COMPOSITION

 Pin =   176.4 PSIA
 CASE = _______________

             REACTANT                    WT FRACTION      ENERGY      TEMP
                                          (SEE NOTE)     KJ/KG-MOL      K  
 FUEL        paraffin                     1.0000000  -1860600.000    298.150
 OXIDANT     N2O                          1.0000000         0.000      0.000

 O/F=   12.50000  %FUEL=  7.407407  R,EQ.RATIO= 0.731082  PHI,EQ.RATIO= 0.731082

                 CHAMBER   THROAT     EXIT
 Pinf/P            1.0000   1.7985   25.630
 P, BAR            12.159   6.7607  0.47441
 T, K             2520.38  2248.08  1310.47
 RHO, KG/CU M    1.7031 0 1.0617 0 1.2780-1
 H, KJ/KG         -137.58  -533.60 -1845.61
 U, KJ/KG         -851.51 -1170.40 -2216.81
 G, KJ/KG        -22702.7 -20660.9 -13578.3
 S, KJ/(KG)(K)     8.9531   8.9531   8.9531

 M, (1/n)          29.353   29.353   29.353
 Cp, KJ/(KG)(K)    1.4628   1.4453   1.3367
 GAMMAs            1.2401   1.2438   1.2689
 SON VEL,M/SEC      940.9    890.0    686.3
 MACH NUMBER        0.000    1.000    2.693

 PERFORMANCE PARAMETERS

 Ae/At                      1.0000   4.0000
 CSTAR, M/SEC               1286.9   1286.9
 CF                         0.6916   1.4362
 Ivac, M/SEC                1605.5   2049.1
 Isp, M/SEC                  890.0   1848.3

 MASS FRACTIONS

 *CO             0.00611   *CO2            0.22795   *H              0.00001
 HO2             0.00002   *H2             0.00006   H2O             0.07950
 *NO             0.01304   NO2             0.00004   *N2             0.58323
 *O              0.00070   *OH             0.00468   *O2             0.08465

  * THERMODYNAMIC PROPERTIES FITTED TO 20000.K

 NOTE. WEIGHT FRACTION OF FUEL IN TOTAL FUELS AND OF OXIDANT IN TOTAL OXIDANTS

           THEORETICAL ROCKET PERFORMANCE ASSUMING FROZEN COMPOSITION

 Pin =   191.0 PSIA
 CASE = _______________

             REACTANT                    WT FRACTION      ENERGY      TEMP
                                          (SEE NOTE)     KJ/KG-MOL      K  
 FUEL        paraffin                     1.0000000  -1860600.000    298.150
 OXIDANT     N2O                          1.0000000         0.000      0.000

 O/F=   12.50000  %FUEL=  7.407407  R,EQ.RATIO= 0.731082  PHI,EQ.RATIO= 0.731082

                 CHAMBER   THROAT     EXIT
 Pinf/P            1.0000   1.7984   25.625
 P, BAR            13.172   7.3243  0.51404
 T, K             2522.33  2249.91  1311.79
 RHO, KG/CU M    1.8439 0 1.1494 0 1.3836-1
 H, KJ/KG         -137.58  -533.83 -1846.73
 U, KJ/KG         -851.95 -1171.05 -2218.25
 G, KJ/KG        -22663.0 -20626.4 -13561.5
 S, KJ/(KG)(K)     8.9304   8.9304   8.9304

 M, (1/n)          29.357   29.357   29.357
 Cp, KJ/(KG)(K)    1.4630   1.4454   1.3369
 GAMMAs            1.2401   1.2437   1.2688
 SON VEL,M/SEC      941.2    890.2    686.6
 MACH NUMBER        0.000    1.000    2.693

 PERFORMANCE PARAMETERS

 Ae/At                      1.0000   4.0000
 CSTAR, M/SEC               1287.3   1287.3
 CF                         0.6915   1.4362
 Ivac, M/SEC                1606.0   2049.8
 Isp, M/SEC                  890.2   1848.9

 MASS FRACTIONS

 *CO             0.00594   *CO2            0.22822   *H              0.00001
 HO2             0.00002   *H2             0.00006   H2O             0.07955
 *NO             0.01308   NO2             0.00004   *N2             0.58322
 *O              0.00068   *OH             0.00461   *O2             0.08457

  * THERMODYNAMIC PROPERTIES FITTED TO 20000.K

 NOTE. WEIGHT FRACTION OF FUEL IN TOTAL FUELS AND OF OXIDANT IN TOTAL OXIDANTS

           THEORETICAL ROCKET PERFORMANCE ASSUMING FROZEN COMPOSITION

 Pin =   205.7 PSIA
 CASE = _______________

             REACTANT                    WT FRACTION      ENERGY      TEMP
                                          (SEE NOTE)     KJ/KG-MOL      K  
 FUEL        paraffin                     1.0000000  -1860600.000    298.150
 OXIDANT     N2O                          1.0000000         0.000      0.000

 O/F=   12.50000  %FUEL=  7.407407  R,EQ.RATIO= 0.731082  PHI,EQ.RATIO= 0.731082

                 CHAMBER   THROAT     EXIT
 Pinf/P            1.0000   1.7984   25.620
 P, BAR            14.185   7.8879  0.55368
 T, K             2524.11  2251.57  1313.00
 RHO, KG/CU M    1.9846 0 1.2371 0 1.4891-1
 H, KJ/KG         -137.58  -534.04 -1847.74
 U, KJ/KG         -852.35 -1171.64 -2219.55
 G, KJ/KG        -22625.9 -20594.2 -13545.8
 S, KJ/(KG)(K)     8.9094   8.9094   8.9094

 M, (1/n)          29.361   29.361   29.361
 Cp, KJ/(KG)(K)    1.4631   1.4456   1.3372
 GAMMAs            1.2400   1.2436   1.2687
 SON VEL,M/SEC      941.4    890.5    686.8
 MACH NUMBER        0.000    1.000    2.693

 PERFORMANCE PARAMETERS

 Ae/At                      1.0000   4.0000
 CSTAR, M/SEC               1287.7   1287.7
 CF                         0.6915   1.4362
 Ivac, M/SEC                1606.5   2050.5
 Isp, M/SEC                  890.5   1849.4

 MASS FRACTIONS

 *CO             0.00579   *CO2            0.22846   *H              0.00001
 HO2             0.00002   *H2             0.00006   H2O             0.07960
 *NO             0.01312   NO2             0.00004   *N2             0.58320
 *O              0.00066   *OH             0.00455   *O2             0.08449

  * THERMODYNAMIC PROPERTIES FITTED TO 20000.K

 NOTE. WEIGHT FRACTION OF FUEL IN TOTAL FUELS AND OF OXIDANT IN TOTAL OXIDANTS

           THEORETICAL ROCKET PERFORMANCE ASSUMING FROZEN COMPOSITION

 Pin =   220.4 PSIA
 CASE = _______________

             REACTANT                    WT FRACTION      ENERGY      TEMP
                                          (SEE NOTE)     KJ/KG-MOL      K  
 FUEL        paraffin                     1.0000000  -1860600.000    298.150
 OXIDANT     N2O                          1.0000000         0.000      0.000

 O/F=   12.50000  %FUEL=  7.407407  R,EQ.RATIO= 0.731082  PHI,EQ.RATIO= 0.731082

                 CHAMBER   THROAT     EXIT
 Pinf/P            1.0000   1.7983   25.616
 P, BAR            15.199   8.4515  0.59333
 T, K             2525.74  2253.08  1314.10
 RHO, KG/CU M    2.1253 0 1.3248 0 1.5946-1
 H, KJ/KG         -137.58  -534.23 -1848.67
 U, KJ/KG         -852.72 -1172.17 -2220.75
 G, KJ/KG        -22591.1 -20563.9 -13530.8
 S, KJ/(KG)(K)     8.8899   8.8899   8.8899

 M, (1/n)          29.365   29.365   29.365
 Cp, KJ/(KG)(K)    1.4632   1.4457   1.3374
 GAMMAs            1.2399   1.2435   1.2686
 SON VEL,M/SEC      941.7    890.7    687.0
 MACH NUMBER        0.000    1.000    2.693

 PERFORMANCE PARAMETERS

 Ae/At                      1.0000   4.0000
 CSTAR, M/SEC               1288.0   1288.0
 CF                         0.6915   1.4362
 Ivac, M/SEC                1606.9   2051.0
 Isp, M/SEC                  890.7   1849.9

 MASS FRACTIONS

 *CO             0.00565   *CO2            0.22869   *H              0.00001
 HO2             0.00002   *H2             0.00006   H2O             0.07965
 *NO             0.01315   NO2             0.00004   *N2             0.58318
 *O              0.00064   *OH             0.00450   *O2             0.08442

  * THERMODYNAMIC PROPERTIES FITTED TO 20000.K

 NOTE. WEIGHT FRACTION OF FUEL IN TOTAL FUELS AND OF OXIDANT IN TOTAL OXIDANTS

           THEORETICAL ROCKET PERFORMANCE ASSUMING FROZEN COMPOSITION

 Pin =   235.1 PSIA
 CASE = _______________

             REACTANT                    WT FRACTION      ENERGY      TEMP
                                          (SEE NOTE)     KJ/KG-MOL      K  
 FUEL        paraffin                     1.0000000  -1860600.000    298.150
 OXIDANT     N2O                          1.0000000         0.000      0.000

 O/F=   12.50000  %FUEL=  7.407407  R,EQ.RATIO= 0.731082  PHI,EQ.RATIO= 0.731082

                 CHAMBER   THROAT     EXIT
 Pinf/P            1.0000   1.7983   25.612
 P, BAR            16.212   9.0151  0.63298
 T, K             2527.23  2254.48  1315.11
 RHO, KG/CU M    2.2659 0 1.4125 0 1.7001-1
 H, KJ/KG         -137.58  -534.41 -1849.53
 U, KJ/KG         -853.06 -1172.67 -2221.85
 G, KJ/KG        -22558.2 -20535.2 -13516.7
 S, KJ/(KG)(K)     8.8716   8.8716   8.8716

 M, (1/n)          29.369   29.369   29.369
 Cp, KJ/(KG)(K)    1.4633   1.4458   1.3376
 GAMMAs            1.2399   1.2435   1.2685
 SON VEL,M/SEC      941.9    890.9    687.2
 MACH NUMBER        0.000    1.000    2.693

 PERFORMANCE PARAMETERS

 Ae/At                      1.0000   4.0000
 CSTAR, M/SEC               1288.4   1288.4
 CF                         0.6915   1.4362
 Ivac, M/SEC                1607.3   2051.6
 Isp, M/SEC                  890.9   1850.4

 MASS FRACTIONS

 *CO             0.00552   *CO2            0.22889   *H              0.00001
 HO2             0.00002   *H2             0.00005   H2O             0.07969
 *NO             0.01318   NO2             0.00004   *N2             0.58317
 *O              0.00062   *OH             0.00445   *O2             0.08436

  * THERMODYNAMIC PROPERTIES FITTED TO 20000.K

 NOTE. WEIGHT FRACTION OF FUEL IN TOTAL FUELS AND OF OXIDANT IN TOTAL OXIDANTS

           THEORETICAL ROCKET PERFORMANCE ASSUMING FROZEN COMPOSITION

 Pin =   249.8 PSIA
 CASE = _______________

             REACTANT                    WT FRACTION      ENERGY      TEMP
                                          (SEE NOTE)     KJ/KG-MOL      K  
 FUEL        paraffin                     1.0000000  -1860600.000    298.150
 OXIDANT     N2O                          1.0000000         0.000      0.000

 O/F=   12.50000  %FUEL=  7.407407  R,EQ.RATIO= 0.731082  PHI,EQ.RATIO= 0.731082

                 CHAMBER   THROAT     EXIT
 Pinf/P            1.0000   1.7983   25.609
 P, BAR            17.225   9.5788  0.67263
 T, K             2528.62  2255.77  1316.05
 RHO, KG/CU M    2.4065 0 1.5001 0 1.8055-1
 H, KJ/KG         -137.58  -534.58 -1850.32
 U, KJ/KG         -853.37 -1173.13 -2222.86
 G, KJ/KG        -22527.1 -20508.2 -13503.2
 S, KJ/(KG)(K)     8.8544   8.8544   8.8544

 M, (1/n)          29.372   29.372   29.372
 Cp, KJ/(KG)(K)    1.4634   1.4459   1.3377
 GAMMAs            1.2398   1.2434   1.2684
 SON VEL,M/SEC      942.0    891.1    687.4
 MACH NUMBER        0.000    1.000    2.692

 PERFORMANCE PARAMETERS

 Ae/At                      1.0000   4.0000
 CSTAR, M/SEC               1288.7   1288.7
 CF                         0.6915   1.4362
 Ivac, M/SEC                1607.7   2052.1
 Isp, M/SEC                  891.1   1850.8

 MASS FRACTIONS

 *CO             0.00540   *CO2            0.22908   *H              0.00001
 HO2             0.00002   *H2             0.00005   H2O             0.07973
 *NO             0.01320   NO2             0.00004   *N2             0.58316
 *O              0.00061   *OH             0.00440   *O2             0.08430

  * THERMODYNAMIC PROPERTIES FITTED TO 20000.K

 NOTE. WEIGHT FRACTION OF FUEL IN TOTAL FUELS AND OF OXIDANT IN TOTAL OXIDANTS

           THEORETICAL ROCKET PERFORMANCE ASSUMING FROZEN COMPOSITION

 Pin =   264.5 PSIA
 CASE = _______________

             REACTANT                    WT FRACTION      ENERGY      TEMP
                                          (SEE NOTE)     KJ/KG-MOL      K  
 FUEL        paraffin                     1.0000000  -1860600.000    298.150
 OXIDANT     N2O                          1.0000000         0.000      0.000

 O/F=   12.50000  %FUEL=  7.407407  R,EQ.RATIO= 0.731082  PHI,EQ.RATIO= 0.731082

                 CHAMBER   THROAT     EXIT
 Pinf/P            1.0000   1.7982   25.606
 P, BAR            18.238   10.142  0.71228
 T, K             2529.90  2256.97  1316.93
 RHO, KG/CU M    2.5470 0 1.5877 0 1.9109-1
 H, KJ/KG         -137.58  -534.73 -1851.06
 U, KJ/KG         -853.66 -1173.55 -2223.81
 G, KJ/KG        -22497.5 -20482.4 -13490.4
 S, KJ/(KG)(K)     8.8383   8.8383   8.8383

 M, (1/n)          29.375   29.375   29.375
 Cp, KJ/(KG)(K)    1.4635   1.4461   1.3379
 GAMMAs            1.2398   1.2434   1.2683
 SON VEL,M/SEC      942.2    891.2    687.6
 MACH NUMBER        0.000    1.000    2.692

 PERFORMANCE PARAMETERS

 Ae/At                      1.0000   4.0000
 CSTAR, M/SEC               1289.0   1289.0
 CF                         0.6914   1.4362
 Ivac, M/SEC                1608.0   2052.6
 Isp, M/SEC                  891.2   1851.2

 MASS FRACTIONS

 *CO             0.00528   *CO2            0.22925   *H              0.00001
 HO2             0.00002   *H2             0.00005   H2O             0.07976
 *NO             0.01323   NO2             0.00005   *N2             0.58314
 *O              0.00059   *OH             0.00435   *O2             0.08425

  * THERMODYNAMIC PROPERTIES FITTED TO 20000.K

 NOTE. WEIGHT FRACTION OF FUEL IN TOTAL FUELS AND OF OXIDANT IN TOTAL OXIDANTS

           THEORETICAL ROCKET PERFORMANCE ASSUMING FROZEN COMPOSITION

 Pin =   279.2 PSIA
 CASE = _______________

             REACTANT                    WT FRACTION      ENERGY      TEMP
                                          (SEE NOTE)     KJ/KG-MOL      K  
 FUEL        paraffin                     1.0000000  -1860600.000    298.150
 OXIDANT     N2O                          1.0000000         0.000      0.000

 O/F=   12.50000  %FUEL=  7.407407  R,EQ.RATIO= 0.731082  PHI,EQ.RATIO= 0.731082

                 CHAMBER   THROAT     EXIT
 Pinf/P            1.0000   1.7982   25.603
 P, BAR            19.252   10.706  0.75195
 T, K             2531.10  2258.09  1317.74
 RHO, KG/CU M    2.6875 0 1.6752 0 2.0162-1
 H, KJ/KG         -137.58  -534.87 -1851.74
 U, KJ/KG         -853.93 -1173.95 -2224.69
 G, KJ/KG        -22469.4 -20457.9 -13478.1
 S, KJ/(KG)(K)     8.8230   8.8230   8.8230

 M, (1/n)          29.378   29.378   29.378
 Cp, KJ/(KG)(K)    1.4636   1.4462   1.3381
 GAMMAs            1.2397   1.2433   1.2683
 SON VEL,M/SEC      942.4    891.4    687.7
 MACH NUMBER        0.000    1.000    2.692

 PERFORMANCE PARAMETERS

 Ae/At                      1.0000   4.0000
 CSTAR, M/SEC               1289.2   1289.2
 CF                         0.6914   1.4362
 Ivac, M/SEC                1608.3   2053.0
 Isp, M/SEC                  891.4   1851.6

 MASS FRACTIONS

 *CO             0.00518   *CO2            0.22942   *H              0.00001
 HO2             0.00002   *H2             0.00005   H2O             0.07980
 *NO             0.01325   NO2             0.00005   *N2             0.58313
 *O              0.00058   *OH             0.00431   *O2             0.08420

  * THERMODYNAMIC PROPERTIES FITTED TO 20000.K

 NOTE. WEIGHT FRACTION OF FUEL IN TOTAL FUELS AND OF OXIDANT IN TOTAL OXIDANTS

           THEORETICAL ROCKET PERFORMANCE ASSUMING FROZEN COMPOSITION

 Pin =   293.9 PSIA
 CASE = _______________

             REACTANT                    WT FRACTION      ENERGY      TEMP
                                          (SEE NOTE)     KJ/KG-MOL      K  
 FUEL        paraffin                     1.0000000  -1860600.000    298.150
[...]

           THEORETICAL ROCKET PERFORMANCE ASSUMING FROZEN COMPOSITION

 Pin =   205.7 PSIA
 CASE = _______________

             REACTANT                    WT FRACTION      ENERGY      TEMP
                                          (SEE NOTE)     KJ/KG-MOL      K  
 FUEL        paraffin                     1.0000000  -1860600.000    298.150
 OXIDANT     N2O                          1.0000000         0.000      0.000

 O/F=    1.00000  %FUEL= 50.000000  R,EQ.RATIO= 9.138527  PHI,EQ.RATIO= 9.138527

                 CHAMBER   THROAT     EXIT
 Pinf/P            1.0000   1.7711   23.794
 P, BAR            14.185   8.0096  0.59617
 T, K             1057.92   963.56   608.09
 RHO, KG/CU M    3.7297 0 2.3121 0 2.7270-1
 H, KJ/KG         -928.66 -1136.25 -1861.35
 U, KJ/KG        -1309.00 -1482.67 -2079.97
 G, KJ/KG        -10846.4 -10169.5 -7562.08
 S, KJ/(KG)(K)     9.3748   9.3748   9.3748

 M, (1/n)          23.127   23.127   23.127
 MW, MOL WT        14.538   14.538   14.538
 Cp, KJ/(KG)(K)    2.2283   2.1707   1.8888
 GAMMAs            1.1924   1.1985   1.2351
 SON VEL,M/SEC      673.4    644.3    519.6
 MACH NUMBER        0.000    1.000    2.628

 PERFORMANCE PARAMETERS

 Ae/At                      1.0000   4.0000
 CSTAR, M/SEC                952.2    952.2
 CF                         0.6767   1.4344
 Ivac, M/SEC                1182.0   1525.9
 Isp, M/SEC                  644.3   1365.8

 MASS FRACTIONS

 CH4             0.07958   *CO             0.12963   *CO2            0.05715
 C2H6            0.00001   HCN             0.00001   *H2             0.03395
 H2O             0.07450   NH3             0.00053   *N2             0.31780
 C(gr)           0.30684

  * THERMODYNAMIC PROPERTIES FITTED TO 20000.K

 NOTE. WEIGHT FRACTION OF FUEL IN TOTAL FUELS AND OF OXIDANT IN TOTAL OXIDANTS

           THEORETICAL ROCKET PERFORMANCE ASSUMING FROZEN COMPOSITION

 Pin =   220.4 PSIA
 CASE = _______________

             REACTANT                    WT FRACTION      ENERGY      TEMP
                                          (SEE NOTE)     KJ/KG-MOL      K  
 FUEL        paraffin                     1.0000000  -1860600.000    298.150
 OXIDANT     N2O                          1.0000000         0.000      0.000

 O/F=    1.00000  %FUEL= 50.000000  R,EQ.RATIO= 9.138527  PHI,EQ.RATIO= 9.138527

                 CHAMBER   THROAT     EXIT
 Pinf/P            1.0000   1.7706   23.760
 P, BAR            15.199   8.5837  0.63967
 T, K             1061.70   967.30   611.37
 RHO, KG/CU M    3.9901 0 2.4734 0 2.9163-1
 H, KJ/KG         -928.66 -1136.51 -1863.08
 U, KJ/KG        -1309.58 -1483.56 -2082.42
 G, KJ/KG        -10855.6 -10180.7 -7579.38
 S, KJ/(KG)(K)     9.3500   9.3500   9.3500

 M, (1/n)          23.174   23.174   23.174
 MW, MOL WT        14.569   14.569   14.569
 Cp, KJ/(KG)(K)    2.2300   2.1724   1.8902
 GAMMAs            1.1917   1.1978   1.2343
 SON VEL,M/SEC      673.8    644.7    520.3
 MACH NUMBER        0.000    1.000    2.627

 PERFORMANCE PARAMETERS

 Ae/At                      1.0000   4.0000
 CSTAR, M/SEC                953.1    953.1
 CF                         0.6765   1.4344
 Ivac, M/SEC                1183.0   1527.5
 Isp, M/SEC                  644.7   1367.1

 MASS FRACTIONS

 CH4             0.08077   *CO             0.12934   *CO2            0.05702
 C2H6            0.00001   HCN             0.00001   *H2             0.03361
 H2O             0.07478   NH3             0.00055   *N2             0.31779
 C(gr)           0.30610

  * THERMODYNAMIC PROPERTIES FITTED TO 20000.K

 NOTE. WEIGHT FRACTION OF FUEL IN TOTAL FUELS AND OF OXIDANT IN TOTAL OXIDANTS

           THEORETICAL ROCKET PERFORMANCE ASSUMING FROZEN COMPOSITION

 Pin =   235.1 PSIA
 CASE = _______________

             REACTANT                    WT FRACTION      ENERGY      TEMP
                                          (SEE NOTE)     KJ/KG-MOL      K  
 FUEL        paraffin                     1.0000000  -1860600.000    298.150
 OXIDANT     N2O                          1.0000000         0.000      0.000

 O/F=    1.00000  %FUEL= 50.000000  R,EQ.RATIO= 9.138527  PHI,EQ.RATIO= 9.138527

                 CHAMBER   THROAT     EXIT
 Pinf/P            1.0000   1.7703   23.728
 P, BAR            16.212   9.1580  0.68324
 T, K             1065.25   970.80   614.46
 RHO, KG/CU M    4.2501 0 2.6344 0 3.1052-1
 H, KJ/KG         -928.66 -1136.75 -1864.69
 U, KJ/KG        -1310.11 -1484.38 -2084.72
 G, KJ/KG        -10864.1 -10191.3 -7595.65
 S, KJ/(KG)(K)     9.3269   9.3269   9.3269

 M, (1/n)          23.219   23.219   23.219
 MW, MOL WT        14.599   14.599   14.599
 Cp, KJ/(KG)(K)    2.2316   2.1740   1.8915
 GAMMAs            1.1911   1.1972   1.2335
 SON VEL,M/SEC      674.1    645.1    521.0
 MACH NUMBER        0.000    1.000    2.626

 PERFORMANCE PARAMETERS

 Ae/At                      1.0000   4.0000
 CSTAR, M/SEC                953.9    953.9
 CF                         0.6763   1.4343
 Ivac, M/SEC                1184.0   1529.0
 Isp, M/SEC                  645.1   1368.2

 MASS FRACTIONS

 CH4             0.08190   *CO             0.12907   *CO2            0.05691
 C2H6            0.00001   HCN             0.00001   *H2             0.03330
 H2O             0.07505   NH3             0.00056   *N2             0.31777
 C(gr)           0.30541

  * THERMODYNAMIC PROPERTIES FITTED TO 20000.K

 NOTE. WEIGHT FRACTION OF FUEL IN TOTAL FUELS AND OF OXIDANT IN TOTAL OXIDANTS

           THEORETICAL ROCKET PERFORMANCE ASSUMING FROZEN COMPOSITION

 Pin =   249.8 PSIA
 CASE = _______________

             REACTANT                    WT FRACTION      ENERGY      TEMP
                                          (SEE NOTE)     KJ/KG-MOL      K  
 FUEL        paraffin                     1.0000000  -1860600.000    298.150
 OXIDANT     N2O                          1.0000000         0.000      0.000

 O/F=    1.00000  %FUEL= 50.000000  R,EQ.RATIO= 9.138527  PHI,EQ.RATIO= 9.138527

                 CHAMBER   THROAT     EXIT
 Pinf/P            1.0000   1.7699   23.698
 P, BAR            17.225   9.7323  0.72687
 T, K             1068.60   974.12   617.38
 RHO, KG/CU M    4.5098 0 2.7952 0 3.2939-1
 H, KJ/KG         -928.66 -1136.98 -1866.20
 U, KJ/KG        -1310.61 -1485.16 -2086.87
 G, KJ/KG        -10872.2 -10201.3 -7611.01
 S, KJ/(KG)(K)     9.3052   9.3052   9.3052

 M, (1/n)          23.262   23.262   23.262
 MW, MOL WT        14.628   14.628   14.628
 Cp, KJ/(KG)(K)    2.2331   2.1755   1.8928
 GAMMAs            1.1906   1.1966   1.2328
 SON VEL,M/SEC      674.3    645.5    521.6
 MACH NUMBER        0.000    1.000    2.625

 PERFORMANCE PARAMETERS

 Ae/At                      1.0000   4.0000
 CSTAR, M/SEC                954.7    954.7
 CF                         0.6761   1.4343
 Ivac, M/SEC                1184.9   1530.5
 Isp, M/SEC                  645.5   1369.3

 MASS FRACTIONS

 CH4             0.08295   *CO             0.12880   *CO2            0.05681
 C2H6            0.00002   HCN             0.00001   *H2             0.03300
 H2O             0.07531   NH3             0.00058   *N2             0.31776
 C(gr)           0.30476

  * THERMODYNAMIC PROPERTIES FITTED TO 20000.K

 NOTE. WEIGHT FRACTION OF FUEL IN TOTAL FUELS AND OF OXIDANT IN TOTAL OXIDANTS

           THEORETICAL ROCKET PERFORMANCE ASSUMING FROZEN COMPOSITION

 Pin =   264.5 PSIA
 CASE = _______________

             REACTANT                    WT FRACTION      ENERGY      TEMP
                                          (SEE NOTE)     KJ/KG-MOL      K  
 FUEL        paraffin                     1.0000000  -1860600.000    298.150
 OXIDANT     N2O                          1.0000000         0.000      0.000

 O/F=    1.00000  %FUEL= 50.000000  R,EQ.RATIO= 9.138527  PHI,EQ.RATIO= 9.138527

                 CHAMBER   THROAT     EXIT
 Pinf/P            1.0000   1.7696   23.669
 P, BAR            18.238   10.307  0.77056
 T, K             1071.77   977.25   620.15
 RHO, KG/CU M    4.7692 0 2.9558 0 3.4823-1
 H, KJ/KG         -928.66 -1137.19 -1867.62
 U, KJ/KG        -1311.08 -1485.88 -2088.90
 G, KJ/KG        -10879.8 -10210.7 -7625.56
 S, KJ/(KG)(K)     9.2848   9.2848   9.2848

 M, (1/n)          23.302   23.302   23.302
 MW, MOL WT        14.655   14.655   14.655
 Cp, KJ/(KG)(K)    2.2345   2.1769   1.8940
 GAMMAs            1.1900   1.1960   1.2321
 SON VEL,M/SEC      674.6    645.8    522.1
 MACH NUMBER        0.000    1.000    2.624

 PERFORMANCE PARAMETERS

 Ae/At                      1.0000   4.0000
 CSTAR, M/SEC                955.5    955.5
 CF                         0.6759   1.4343
 Ivac, M/SEC                1185.7   1531.8
 Isp, M/SEC                  645.8   1370.4

 MASS FRACTIONS

 CH4             0.08395   *CO             0.12855   *CO2            0.05672
 C2H6            0.00002   HCN             0.00001   *H2             0.03272
 H2O             0.07555   NH3             0.00060   *N2             0.31775
 C(gr)           0.30414

  * THERMODYNAMIC PROPERTIES FITTED TO 20000.K

 NOTE. WEIGHT FRACTION OF FUEL IN TOTAL FUELS AND OF OXIDANT IN TOTAL OXIDANTS

           THEORETICAL ROCKET PERFORMANCE ASSUMING FROZEN COMPOSITION

 Pin =   279.2 PSIA
 CASE = _______________

             REACTANT                    WT FRACTION      ENERGY      TEMP
                                          (SEE NOTE)     KJ/KG-MOL      K  
 FUEL        paraffin                     1.0000000  -1860600.000    298.150
 OXIDANT     N2O                          1.0000000         0.000      0.000

 O/F=    1.00000  %FUEL= 50.000000  R,EQ.RATIO= 9.138527  PHI,EQ.RATIO= 9.138527

                 CHAMBER   THROAT     EXIT
 Pinf/P            1.0000   1.7692   23.642
 P, BAR            19.252   10.881  0.81430
 T, K             1074.78   980.23   622.79
 RHO, KG/CU M    5.0284 0 3.1163 0 3.6705-1
 H, KJ/KG         -928.66 -1137.39 -1868.96
 U, KJ/KG        -1311.52 -1486.57 -2090.81
 G, KJ/KG        -10887.0 -10219.7 -7639.38
 S, KJ/(KG)(K)     9.2655   9.2655   9.2655

 M, (1/n)          23.341   23.341   23.341
 MW, MOL WT        14.680   14.680   14.680
 Cp, KJ/(KG)(K)    2.2358   2.1782   1.8952
 GAMMAs            1.1895   1.1955   1.2315
 SON VEL,M/SEC      674.8    646.1    522.7
 MACH NUMBER        0.000    1.000    2.624

 PERFORMANCE PARAMETERS

 Ae/At                      1.0000   4.0000
 CSTAR, M/SEC                956.2    956.2
 CF                         0.6757   1.4342
 Ivac, M/SEC                1186.5   1533.1
 Isp, M/SEC                  646.1   1371.3

 MASS FRACTIONS

 CH4             0.08490   *CO             0.12831   *CO2            0.05663
 C2H6            0.00002   HCN             0.00001   *H2             0.03245
 H2O             0.07577   NH3             0.00061   *N2             0.31773
 C(gr)           0.30356

  * THERMODYNAMIC PROPERTIES FITTED TO 20000.K

 NOTE. WEIGHT FRACTION OF FUEL IN TOTAL FUELS AND OF OXIDANT IN TOTAL OXIDANTS

           THEORETICAL ROCKET PERFORMANCE ASSUMING FROZEN COMPOSITION

 Pin =   293.9 PSIA
 CASE = _______________

             REACTANT                    WT FRACTION      ENERGY      TEMP
                                          (SEE NOTE)     KJ/KG-MOL      K  
 FUEL        paraffin                     1.0000000  -1860600.000    298.150
 OXIDANT     N2O                          1.0000000         0.000      0.000

 O/F=    1.00000  %FUEL= 50.000000  R,EQ.RATIO= 9.138527  PHI,EQ.RATIO= 9.138527

                 CHAMBER   THROAT     EXIT
 Pinf/P            1.0000   1.7689   23.616
 P, BAR            20.265   11.456  0.85810
 T, K             1077.64   983.06   625.30
 RHO, KG/CU M    5.2873 0 3.2766 0 3.8584-1
 H, KJ/KG         -928.66 -1137.57 -1870.23
 U, KJ/KG        -1311.94 -1487.21 -2092.63
 G, KJ/KG        -10893.8 -10228.2 -7652.53
 S, KJ/(KG)(K)     9.2472   9.2472   9.2472

 M, (1/n)          23.377   23.377   23.377
 MW, MOL WT        14.705   14.705   14.705
 Cp, KJ/(KG)(K)    2.2371   2.1795   1.8964
 GAMMAs            1.1890   1.1950   1.2308
 SON VEL,M/SEC      675.1    646.4    523.2
 MACH NUMBER        0.000    1.000    2.623

 PERFORMANCE PARAMETERS

 Ae/At                      1.0000   4.0000
 CSTAR, M/SEC                956.8    956.8
 CF                         0.6756   1.4342
 Ivac, M/SEC                1187.3   1534.3
 Isp, M/SEC                  646.4   1372.3

 MASS FRACTIONS

 CH4             0.08580   *CO             0.12807   *CO2            0.05656
 C2H6            0.00002   HCN             0.00001   *H2             0.03220
 H2O             0.07598   NH3             0.00063   *N2             0.31772
 C(gr)           0.30301

  * THERMODYNAMIC PROPERTIES FITTED TO 20000.K

 NOTE. WEIGHT FRACTION OF FUEL IN TOTAL FUELS AND OF OXIDANT IN TOTAL OXIDANTS

           THEORETICAL ROCKET PERFORMANCE ASSUMING FROZEN COMPOSITION

 Pin =   308.6 PSIA
 CASE = _______________

             REACTANT                    WT FRACTION      ENERGY      TEMP
                                          (SEE NOTE)     KJ/KG-MOL      K  
 FUEL        paraffin                     1.0000000  -1860600.000    298.150
 OXIDANT     N2O                          1.0000000         0.000      0.000

 O/F=    1.00000  %FUEL= 50.000000  R,EQ.RATIO= 9.138527  PHI,EQ.RATIO= 9.138527

                 CHAMBER   THROAT     EXIT
 Pinf/P            1.0000   1.7686   23.592
 P, BAR            21.278   12.031  0.90194
 T, K             1080.37   985.76   627.71
 RHO, KG/CU M    5.5459 0 3.4367 0 4.0461-1
 H, KJ/KG         -928.66 -1137.75 -1871.43
 U, KJ/KG        -1312.33 -1487.82 -2094.35
 G, KJ/KG        -10900.4 -10236.2 -7665.09
 S, KJ/(KG)(K)     9.2299   9.2299   9.2299

 M, (1/n)          23.412   23.412   23.412
 MW, MOL WT        14.728   14.728   14.728
 Cp, KJ/(KG)(K)    2.2384   2.1808   1.8975
 GAMMAs            1.1886   1.1945   1.2303
 SON VEL,M/SEC      675.3    646.7    523.7
 MACH NUMBER        0.000    1.000    2.622

 PERFORMANCE PARAMETERS

 Ae/At                      1.0000   4.0000
 CSTAR, M/SEC                957.5    957.5
 CF                         0.6754   1.4342
 Ivac, M/SEC                1188.0   1535.5
 Isp, M/SEC                  646.7   1373.2

 MASS FRACTIONS

 CH4             0.08666   *CO             0.12784   *CO2            0.05649
 C2H6            0.00002   HCN             0.00001   *H2             0.03196
 H2O             0.07618   NH3             0.00064   *N2             0.31771
 C(gr)           0.30248

  * THERMODYNAMIC PROPERTIES FITTED TO 20000.K

 NOTE. WEIGHT FRACTION OF FUEL IN TOTAL FUELS AND OF OXIDANT IN TOTAL OXIDANTS

           THEORETICAL ROCKET PERFORMANCE ASSUMING FROZEN COMPOSITION

 Pin =   323.3 PSIA
 CASE = _______________

             REACTANT                    WT FRACTION      ENERGY      TEMP
                                          (SEE NOTE)     KJ/KG-MOL      K  
 FUEL        paraffin                     1.0000000  -1860600.000    298.150
 OXIDANT     N2O                          1.0000000         0.000      0.000

 O/F=    1.00000  %FUEL= 50.000000  R,EQ.RATIO= 9.138527  PHI,EQ.RATIO= 9.138527

                 CHAMBER   THROAT     EXIT
 Pinf/P            1.0000   1.7683   23.568
 P, BAR            22.291   12.606  0.94584
 T, K             1082.98   988.35   630.01
 RHO, KG/CU M    5.8043 0 3.5966 0 4.2335-1
 H, KJ/KG         -928.66 -1137.91 -1872.58
 U, KJ/KG        -1312.71 -1488.40 -2095.99
 G, KJ/KG        -10906.6 -10244.0 -7677.10
 S, KJ/(KG)(K)     9.2134   9.2134   9.2134

 M, (1/n)          23.446   23.446   23.446
 MW, MOL WT        14.751   14.751   14.751
 Cp, KJ/(KG)(K)    2.2396   2.1820   1.8985
 GAMMAs            1.1881   1.1941   1.2297
 SON VEL,M/SEC      675.5    646.9    524.1
 MACH NUMBER        0.000    1.000    2.621

 PERFORMANCE PARAMETERS

 Ae/At                      1.0000   4.0000
 CSTAR, M/SEC                958.1    958.1
 CF                         0.6752   1.4341
 Ivac, M/SEC                1188.7   1536.6
 Isp, M/SEC                  646.9   1374.0

 MASS FRACTIONS

 CH4             0.08748   *CO             0.12762   *CO2            0.05643
 C2H6            0.00002   HCN             0.00001   *H2             0.03173
 H2O             0.07638   NH3             0.00066   *N2             0.31770
 C(gr)           0.30197

  * THERMODYNAMIC PROPERTIES FITTED TO 20000.K

 NOTE. WEIGHT FRACTION OF FUEL IN TOTAL FUELS AND OF OXIDANT IN TOTAL OXIDANTS

           THEORETICAL ROCKET PERFORMANCE ASSUMING FROZEN COMPOSITION

 Pin =   338.0 PSIA
 CASE = _______________

             REACTANT                    WT FRACTION      ENERGY      TEMP
                                          (SEE NOTE)     KJ/KG-MOL      K  
 FUEL        paraffin                     1.0000000  -1860600.000    298.150
 OXIDANT     N2O                          1.0000000         0.000      0.000

 O/F=    1.00000  %FUEL= 50.000000  R,EQ.RATIO= 9.138527  PHI,EQ.RATIO= 9.138527

                 CHAMBER   THROAT     EXIT
 Pinf/P            1.0000   1.7681   23.546
 P, BAR            23.305   13.181  0.98977
 T, K             1085.48   990.83   632.22
 RHO, KG/CU M    6.0625 0 3.7565 0 4.4208-1
 H, KJ/KG         -928.66 -1138.07 -1873.67
 U, KJ/KG        -1313.07 -1488.96 -2097.56
 G, KJ/KG        -10912.5 -10251.4 -7688.62
 S, KJ/(KG)(K)     9.1976   9.1976   9.1976

 M, (1/n)          23.478   23.478   23.478
 MW, MOL WT        14.772   14.772   14.772
 Cp, KJ/(KG)(K)    2.2407   2.1832   1.8996
 GAMMAs            1.1877   1.1936   1.2291
 SON VEL,M/SEC      675.7    647.2    524.6
 MACH NUMBER        0.000    1.000    2.621

 PERFORMANCE PARAMETERS

 Ae/At                      1.0000   4.0000
 CSTAR, M/SEC                958.6    958.6
 CF                         0.6751   1.4341
 Ivac, M/SEC                1189.4   1537.6
 Isp, M/SEC                  647.2   1374.8

 MASS FRACTIONS

 CH4             0.08827   *CO             0.12741   *CO2            0.05637
 C2H6            0.00002   HCN             0.00001   *H2             0.03151
 H2O             0.07656   NH3             0.00067   *N2             0.31768
 C(gr)           0.30149

  * THERMODYNAMIC PROPERTIES FITTED TO 20000.K

 NOTE. WEIGHT FRACTION OF FUEL IN TOTAL FUELS AND OF OXIDANT IN TOTAL OXIDANTS

           THEORETICAL ROCKET PERFORMANCE ASSUMING FROZEN COMPOSITION

 Pin =   352.7 PSIA
 CASE = _______________

             REACTANT                    WT FRACTION      ENERGY      TEMP
                                          (SEE NOTE)     KJ/KG-MOL      K  
 FUEL        paraffin                     1.0000000  -1860600.000    298.150
 OXIDANT     N2O                          1.0000000         0.000      0.000

 O/F=    1.00000  %FUEL= 50.000000  R,EQ.RATIO= 9.138527  PHI,EQ.RATIO= 9.138527

                 CHAMBER   THROAT     EXIT
 Pinf/P            1.0000   1.7678   23.524
 P, BAR            24.318   13.756   1.0338
 T, K             1087.88   993.21   634.35
 RHO, KG/CU M    6.3205 0 3.9162 0 4.6078-1
 H, KJ/KG         -928.66 -1138.22 -1874.71
 U, KJ/KG        -1313.41 -1489.49 -2099.05
 G, KJ/KG        -10918.2 -10258.4 -7699.67
 S, KJ/(KG)(K)     9.1826   9.1826   9.1826

 M, (1/n)          23.510   23.510   23.510
 MW, MOL WT        14.793   14.793   14.793
 Cp, KJ/(KG)(K)    2.2418   2.1843   1.9006
 GAMMAs            1.1873   1.1932   1.2286
 SON VEL,M/SEC      675.9    647.4    525.0
 MACH NUMBER        0.000    1.000    2.620

 PERFORMANCE PARAMETERS

 Ae/At                      1.0000   4.0000
 CSTAR, M/SEC                959.2    959.2
 CF                         0.6750   1.4341
 Ivac, M/SEC                1190.0   1538.6
 Isp, M/SEC                  647.4   1375.5

 MASS FRACTIONS

 CH4             0.08902   *CO             0.12720   *CO2            0.05632
 C2H6            0.00002   HCN             0.00001   *H2             0.03130
 H2O             0.07674   NH3             0.00068   *N2             0.31767
 C(gr)           0.30103

  * THERMODYNAMIC PROPERTIES FITTED TO 20000.K

 NOTE. WEIGHT FRACTION OF FUEL IN TOTAL FUELS AND OF OXIDANT IN TOTAL OXIDANTS