         NASA-GLENN CHEMICAL EQUILIBRIUM PROGRAM CEA2, FEBRUARY 5, 2004
                   BY  BONNIE MCBRIDE AND SANFORD GORDON
      REFS: NASA RP-1311, PART I, 1994 AND NASA RP-1311, PART II, 1996

 *******************************************************************************

  
 ### CEA analysis performed on Tue 12-Oct-2021 14:54:48
  
 # Problem Type: "Rocket" (Infinite Area Combustor)
  
 prob case=_______________9349 ro frozen
  
 # Pressure (24 values):
 p,atm= 1, 2, 3, 4, 5, 6, 7, 8, 9, 10, 11, 12, 13, 14, 15, 16, 17, 18, 19, 20, 21
 , 22, 23, 24
 # Supersonic Area Ratio (1 value):
 supar= 4
  
 # Oxidizer/Fuel Wt. ratio (31 values):
 o/f= 24.3, 24.5, 24.7, 24.9, 25.1, 25.3, 25.5, 25.7, 25.9, 26.1, 26.3, 26.5, 26.
 7, 26.9, 27.1, 27.3, 27.5, 27.7, 27.9, 28.1, 28.3, 2
  
 # You selected the following fuels and oxidizers:
 reac
 fuel paraffin          wt%=100.0000
 oxid N2O               wt%=100.0000
  
 # You selected these options for output:
 # short version of output
 output short
 # Proportions of any products will be expressed as Mass Fractions.
 output massf
 # Heat will be expressed as siunits
 output siunits
  
 # Input prepared by this script:/var/www/sites/cearun.grc.nasa.gov/cgi-bin/CEARU
 N/prepareInputFile.cgi
  
 ### IMPORTANT:  The following line is the end of your CEA input file!
 end

           THEORETICAL ROCKET PERFORMANCE ASSUMING FROZEN COMPOSITION

 Pin =    14.7 PSIA
 CASE = _______________

             REACTANT                    WT FRACTION      ENERGY      TEMP
                                          (SEE NOTE)     KJ/KG-MOL      K  
 FUEL        paraffin                     1.0000000  -1860600.000    298.150
 OXIDANT     N2O                          1.0000000         0.000      0.000

 O/F=   24.30000  %FUEL=  3.952569  R,EQ.RATIO= 0.376071  PHI,EQ.RATIO= 0.376071

                 CHAMBER   THROAT     EXIT
 Pinf/P            1.0000   1.8209   27.990
 P, BAR            1.0132  0.55647  0.03620
 T, K             1678.08  1473.52   784.39
 RHO, KG/CU M    2.1385-1 1.3375-1 1.6345-2
 H, KJ/KG         -73.412  -339.75 -1187.97
 U, KJ/KG         -547.24  -755.81 -1409.45
 G, KJ/KG        -15046.6 -13487.7 -8186.92
 S, KJ/(KG)(K)     8.9228   8.9228   8.9228

 M, (1/n)          29.446   29.446   29.446
 Cp, KJ/(KG)(K)    1.3134   1.2897   1.1543
 GAMMAs            1.2738   1.2803   1.3238
 SON VEL,M/SEC      776.9    729.9    541.5
 MACH NUMBER        0.000    1.000    2.757

 PERFORMANCE PARAMETERS

 Ae/At                      1.0000   4.0000
 CSTAR, M/SEC               1038.0   1038.0
 CF                         0.7031   1.4383
 Ivac, M/SEC                1299.9   1641.4
 Isp, M/SEC                  729.8   1493.0

 MASS FRACTIONS

 *CO             0.00001   *CO2            0.12675   H2O             0.04398
 *NO             0.00239   NO2             0.00001   *N2             0.61021
 *O              0.00001   *OH             0.00017   *O2             0.21648

  * THERMODYNAMIC PROPERTIES FITTED TO 20000.K

 NOTE. WEIGHT FRACTION OF FUEL IN TOTAL FUELS AND OF OXIDANT IN TOTAL OXIDANTS

           THEORETICAL ROCKET PERFORMANCE ASSUMING FROZEN COMPOSITION

 Pin =    29.4 PSIA
 CASE = _______________

             REACTANT                    WT FRACTION      ENERGY      TEMP
                                          (SEE NOTE)     KJ/KG-MOL      K  
 FUEL        paraffin                     1.0000000  -1860600.000    298.150
 OXIDANT     N2O                          1.0000000         0.000      0.000

 O/F=   24.30000  %FUEL=  3.952569  R,EQ.RATIO= 0.376071  PHI,EQ.RATIO= 0.376071

                 CHAMBER   THROAT     EXIT
 Pinf/P            1.0000   1.8208   27.989
 P, BAR            2.0265   1.1129  0.07240
 T, K             1678.33  1473.75   784.54
 RHO, KG/CU M    4.2764-1 2.6746-1 3.2686-2
 H, KJ/KG         -73.412  -339.78 -1188.12
 U, KJ/KG         -547.30  -755.90 -1409.64
 G, KJ/KG        -14720.3 -13201.3 -8034.85
 S, KJ/(KG)(K)     8.7271   8.7271   8.7271

 M, (1/n)          29.447   29.447   29.447
 Cp, KJ/(KG)(K)    1.3135   1.2898   1.1544
 GAMMAs            1.2738   1.2803   1.3238
 SON VEL,M/SEC      776.9    729.9    541.5
 MACH NUMBER        0.000    1.000    2.757

 PERFORMANCE PARAMETERS

 Ae/At                      1.0000   4.0000
 CSTAR, M/SEC               1038.1   1038.1
 CF                         0.7031   1.4383
 Ivac, M/SEC                1300.0   1641.5
 Isp, M/SEC                  729.9   1493.1

 MASS FRACTIONS

 *CO             0.00001   *CO2            0.12675   H2O             0.04399
 *NO             0.00239   NO2             0.00002   *N2             0.61020
 *O              0.00001   *OH             0.00015   *O2             0.21649

  * THERMODYNAMIC PROPERTIES FITTED TO 20000.K

 NOTE. WEIGHT FRACTION OF FUEL IN TOTAL FUELS AND OF OXIDANT IN TOTAL OXIDANTS

           THEORETICAL ROCKET PERFORMANCE ASSUMING FROZEN COMPOSITION

 Pin =    44.1 PSIA
 CASE = _______________

             REACTANT                    WT FRACTION      ENERGY      TEMP
                                          (SEE NOTE)     KJ/KG-MOL      K  
 FUEL        paraffin                     1.0000000  -1860600.000    298.150
 OXIDANT     N2O                          1.0000000         0.000      0.000

 O/F=   24.30000  %FUEL=  3.952569  R,EQ.RATIO= 0.376071  PHI,EQ.RATIO= 0.376071

                 CHAMBER   THROAT     EXIT
 Pinf/P            1.0000   1.8208   27.988
 P, BAR            3.0397   1.6694  0.10861
 T, K             1678.45  1473.86   784.61
 RHO, KG/CU M    6.4141-1 4.0116-1 4.9025-2
 H, KJ/KG         -73.412  -339.80 -1188.19
 U, KJ/KG         -547.33  -755.94 -1409.73
 G, KJ/KG        -14529.2 -13033.5 -7945.74
 S, KJ/(KG)(K)     8.6126   8.6126   8.6126

 M, (1/n)          29.447   29.447   29.447
 Cp, KJ/(KG)(K)    1.3135   1.2898   1.1544
 GAMMAs            1.2738   1.2803   1.3238
 SON VEL,M/SEC      777.0    729.9    541.5
 MACH NUMBER        0.000    1.000    2.757

 PERFORMANCE PARAMETERS

 Ae/At                      1.0000   4.0000
 CSTAR, M/SEC               1038.1   1038.1
 CF                         0.7031   1.4383
 Ivac, M/SEC                1300.0   1641.5
 Isp, M/SEC                  729.9   1493.2

 MASS FRACTIONS

 *CO             0.00001   *CO2            0.12675   H2O             0.04400
 *NO             0.00239   NO2             0.00002   *N2             0.61020
 *OH             0.00013   *O2             0.21649

  * THERMODYNAMIC PROPERTIES FITTED TO 20000.K

 NOTE. WEIGHT FRACTION OF FUEL IN TOTAL FUELS AND OF OXIDANT IN TOTAL OXIDANTS

           THEORETICAL ROCKET PERFORMANCE ASSUMING FROZEN COMPOSITION

 Pin =    58.8 PSIA
 CASE = _______________

             REACTANT                    WT FRACTION      ENERGY      TEMP
                                          (SEE NOTE)     KJ/KG-MOL      K  
 FUEL        paraffin                     1.0000000  -1860600.000    298.150
 OXIDANT     N2O                          1.0000000         0.000      0.000

 O/F=   24.30000  %FUEL=  3.952569  R,EQ.RATIO= 0.376071  PHI,EQ.RATIO= 0.376071

                 CHAMBER   THROAT     EXIT
 Pinf/P            1.0000   1.8208   27.988
 P, BAR            4.0530   2.2259  0.14481
 T, K             1678.53  1473.93   784.66
 RHO, KG/CU M    8.5518-1 5.3486-1 6.5364-2
 H, KJ/KG         -73.412  -339.81 -1188.24
 U, KJ/KG         -547.35  -755.97 -1409.79
 G, KJ/KG        -14393.5 -12914.4 -7882.45
 S, KJ/(KG)(K)     8.5314   8.5314   8.5314

 M, (1/n)          29.447   29.447   29.447
 Cp, KJ/(KG)(K)    1.3135   1.2898   1.1544
 GAMMAs            1.2738   1.2803   1.3238
 SON VEL,M/SEC      777.0    729.9    541.6
 MACH NUMBER        0.000    1.000    2.757

 PERFORMANCE PARAMETERS

 Ae/At                      1.0000   4.0000
 CSTAR, M/SEC               1038.1   1038.1
 CF                         0.7031   1.4383
 Ivac, M/SEC                1300.1   1641.6
 Isp, M/SEC                  729.9   1493.2

 MASS FRACTIONS

 *CO2            0.12675   H2O             0.04400   *NO             0.00239
 NO2             0.00002   *N2             0.61020   *OH             0.00012
 *O2             0.21649

  * THERMODYNAMIC PROPERTIES FITTED TO 20000.K

 NOTE. WEIGHT FRACTION OF FUEL IN TOTAL FUELS AND OF OXIDANT IN TOTAL OXIDANTS

           THEORETICAL ROCKET PERFORMANCE ASSUMING FROZEN COMPOSITION

 Pin =    73.5 PSIA
 CASE = _______________

             REACTANT                    WT FRACTION      ENERGY      TEMP
                                          (SEE NOTE)     KJ/KG-MOL      K  
 FUEL        paraffin                     1.0000000  -1860600.000    298.150
 OXIDANT     N2O                          1.0000000         0.000      0.000

 O/F=   24.30000  %FUEL=  3.952569  R,EQ.RATIO= 0.376071  PHI,EQ.RATIO= 0.376071

                 CHAMBER   THROAT     EXIT
 Pinf/P            1.0000   1.8208   27.988
 P, BAR            5.0663   2.7824  0.18102
 T, K             1678.58  1473.98   784.69
 RHO, KG/CU M    1.0689 0 6.6855-1 8.1702-2
 H, KJ/KG         -73.412  -339.81 -1188.27
 U, KJ/KG         -547.36  -755.99 -1409.83
 G, KJ/KG        -14288.2 -12822.0 -7833.33
 S, KJ/(KG)(K)     8.4684   8.4684   8.4684

 M, (1/n)          29.448   29.448   29.448
 Cp, KJ/(KG)(K)    1.3135   1.2898   1.1544
 GAMMAs            1.2738   1.2803   1.3238
 SON VEL,M/SEC      777.0    729.9    541.6
 MACH NUMBER        0.000    1.000    2.757

 PERFORMANCE PARAMETERS

 Ae/At                      1.0000   4.0000
 CSTAR, M/SEC               1038.2   1038.2
 CF                         0.7031   1.4383
 Ivac, M/SEC                1300.1   1641.6
 Isp, M/SEC                  729.9   1493.2

 MASS FRACTIONS

 *CO2            0.12675   H2O             0.04401   *NO             0.00239
 NO2             0.00003   *N2             0.61020   *OH             0.00012
 *O2             0.21649

  * THERMODYNAMIC PROPERTIES FITTED TO 20000.K

 NOTE. WEIGHT FRACTION OF FUEL IN TOTAL FUELS AND OF OXIDANT IN TOTAL OXIDANTS

           THEORETICAL ROCKET PERFORMANCE ASSUMING FROZEN COMPOSITION

 Pin =    88.2 PSIA
 CASE = _______________

             REACTANT                    WT FRACTION      ENERGY      TEMP
                                          (SEE NOTE)     KJ/KG-MOL      K  
 FUEL        paraffin                     1.0000000  -1860600.000    298.150
 OXIDANT     N2O                          1.0000000         0.000      0.000

 O/F=   24.30000  %FUEL=  3.952569  R,EQ.RATIO= 0.376071  PHI,EQ.RATIO= 0.376071

                 CHAMBER   THROAT     EXIT
 Pinf/P            1.0000   1.8208   27.987
 P, BAR            6.0795   3.3389  0.21722
 T, K             1678.62  1474.02   784.72
 RHO, KG/CU M    1.2827 0 8.0225-1 9.8041-2
 H, KJ/KG         -73.412  -339.82 -1188.30
 U, KJ/KG         -547.37  -756.01 -1409.86
 G, KJ/KG        -14202.2 -12746.5 -7793.18
 S, KJ/(KG)(K)     8.4169   8.4169   8.4169

 M, (1/n)          29.448   29.448   29.448
 Cp, KJ/(KG)(K)    1.3135   1.2898   1.1544
 GAMMAs            1.2738   1.2803   1.3238
 SON VEL,M/SEC      777.0    730.0    541.6
 MACH NUMBER        0.000    1.000    2.757

 PERFORMANCE PARAMETERS

 Ae/At                      1.0000   4.0000
 CSTAR, M/SEC               1038.2   1038.2
 CF                         0.7031   1.4383
 Ivac, M/SEC                1300.1   1641.6
 Isp, M/SEC                  729.9   1493.2

 MASS FRACTIONS

 *CO2            0.12675   H2O             0.04401   *NO             0.00239
 NO2             0.00003   *N2             0.61020   *OH             0.00011
 *O2             0.21649

  * THERMODYNAMIC PROPERTIES FITTED TO 20000.K

 NOTE. WEIGHT FRACTION OF FUEL IN TOTAL FUELS AND OF OXIDANT IN TOTAL OXIDANTS

           THEORETICAL ROCKET PERFORMANCE ASSUMING FROZEN COMPOSITION

 Pin =   102.9 PSIA
 CASE = _______________

             REACTANT                    WT FRACTION      ENERGY      TEMP
                                          (SEE NOTE)     KJ/KG-MOL      K  
 FUEL        paraffin                     1.0000000  -1860600.000    298.150
 OXIDANT     N2O                          1.0000000         0.000      0.000

 O/F=   24.30000  %FUEL=  3.952569  R,EQ.RATIO= 0.376071  PHI,EQ.RATIO= 0.376071

                 CHAMBER   THROAT     EXIT
 Pinf/P            1.0000   1.8208   27.987
 P, BAR            7.0927   3.8953  0.25343
 T, K             1678.66  1474.05   784.74
 RHO, KG/CU M    1.4965 0 9.3594-1 1.1438-1
 H, KJ/KG         -73.412  -339.82 -1188.32
 U, KJ/KG         -547.38  -756.02 -1409.89
 G, KJ/KG        -14129.4 -12682.6 -7759.22
 S, KJ/(KG)(K)     8.3734   8.3734   8.3734

 M, (1/n)          29.448   29.448   29.448
 Cp, KJ/(KG)(K)    1.3135   1.2898   1.1544
 GAMMAs            1.2738   1.2803   1.3238
 SON VEL,M/SEC      777.0    730.0    541.6
 MACH NUMBER        0.000    1.000    2.757

 PERFORMANCE PARAMETERS

 Ae/At                      1.0000   4.0000
 CSTAR, M/SEC               1038.2   1038.2
 CF                         0.7031   1.4383
 Ivac, M/SEC                1300.1   1641.6
 Isp, M/SEC                  729.9   1493.3

 MASS FRACTIONS

 *CO2            0.12675   H2O             0.04401   *NO             0.00239
 NO2             0.00003   *N2             0.61020   *OH             0.00011
 *O2             0.21649

  * THERMODYNAMIC PROPERTIES FITTED TO 20000.K

 NOTE. WEIGHT FRACTION OF FUEL IN TOTAL FUELS AND OF OXIDANT IN TOTAL OXIDANTS

           THEORETICAL ROCKET PERFORMANCE ASSUMING FROZEN COMPOSITION

 Pin =   117.6 PSIA
 CASE = _______________

             REACTANT                    WT FRACTION      ENERGY      TEMP
                                          (SEE NOTE)     KJ/KG-MOL      K  
 FUEL        paraffin                     1.0000000  -1860600.000    298.150
 OXIDANT     N2O                          1.0000000         0.000      0.000

 O/F=   24.30000  %FUEL=  3.952569  R,EQ.RATIO= 0.376071  PHI,EQ.RATIO= 0.376071

                 CHAMBER   THROAT     EXIT
 Pinf/P            1.0000   1.8208   27.987
 P, BAR            8.1060   4.4518  0.28963
 T, K             1678.68  1474.08   784.76
 RHO, KG/CU M    1.7102 0 1.0696 0 1.3072-1
 H, KJ/KG         -73.412  -339.83 -1188.33
 U, KJ/KG         -547.38  -756.03 -1409.91
 G, KJ/KG        -14066.3 -12627.2 -7729.80
 S, KJ/(KG)(K)     8.3357   8.3357   8.3357

 M, (1/n)          29.448   29.448   29.448
 Cp, KJ/(KG)(K)    1.3135   1.2898   1.1544
 GAMMAs            1.2738   1.2803   1.3238
 SON VEL,M/SEC      777.0    730.0    541.6
 MACH NUMBER        0.000    1.000    2.757

 PERFORMANCE PARAMETERS

 Ae/At                      1.0000   4.0000
 CSTAR, M/SEC               1038.2   1038.2
 CF                         0.7031   1.4383
 Ivac, M/SEC                1300.1   1641.6
 Isp, M/SEC                  730.0   1493.3

 MASS FRACTIONS

 *CO2            0.12675   H2O             0.04401   *NO             0.00239
 NO2             0.00003   *N2             0.61020   *OH             0.00010
 *O2             0.21649

  * THERMODYNAMIC PROPERTIES FITTED TO 20000.K

 NOTE. WEIGHT FRACTION OF FUEL IN TOTAL FUELS AND OF OXIDANT IN TOTAL OXIDANTS

           THEORETICAL ROCKET PERFORMANCE ASSUMING FROZEN COMPOSITION

 Pin =   132.3 PSIA
 CASE = _______________

             REACTANT                    WT FRACTION      ENERGY      TEMP
                                          (SEE NOTE)     KJ/KG-MOL      K  
 FUEL        paraffin                     1.0000000  -1860600.000    298.150
 OXIDANT     N2O                          1.0000000         0.000      0.000

 O/F=   24.30000  %FUEL=  3.952569  R,EQ.RATIO= 0.376071  PHI,EQ.RATIO= 0.376071

                 CHAMBER   THROAT     EXIT
 Pinf/P            1.0000   1.8208   27.987
 P, BAR            9.1192   5.0083  0.32584
 T, K             1678.71  1474.10   784.77
 RHO, KG/CU M    1.9240 0 1.2033 0 1.4705-1
 H, KJ/KG         -73.412  -339.83 -1188.35
 U, KJ/KG         -547.39  -756.04 -1409.93
 G, KJ/KG        -14010.7 -12578.4 -7703.84
 S, KJ/(KG)(K)     8.3024   8.3024   8.3024

 M, (1/n)          29.448   29.448   29.448
 Cp, KJ/(KG)(K)    1.3135   1.2898   1.1544
 GAMMAs            1.2738   1.2803   1.3238
 SON VEL,M/SEC      777.0    730.0    541.6
 MACH NUMBER        0.000    1.000    2.757

 PERFORMANCE PARAMETERS

 Ae/At                      1.0000   4.0000
 CSTAR, M/SEC               1038.2   1038.2
 CF                         0.7031   1.4383
 Ivac, M/SEC                1300.1   1641.7
 Isp, M/SEC                  730.0   1493.3

 MASS FRACTIONS

 *CO2            0.12676   H2O             0.04402   *NO             0.00239
 NO2             0.00004   *N2             0.61020   *OH             0.00010
 *O2             0.21649

  * THERMODYNAMIC PROPERTIES FITTED TO 20000.K

 NOTE. WEIGHT FRACTION OF FUEL IN TOTAL FUELS AND OF OXIDANT IN TOTAL OXIDANTS

           THEORETICAL ROCKET PERFORMANCE ASSUMING FROZEN COMPOSITION

 Pin =   147.0 PSIA
 CASE = _______________

             REACTANT                    WT FRACTION      ENERGY      TEMP
                                          (SEE NOTE)     KJ/KG-MOL      K  
 FUEL        paraffin                     1.0000000  -1860600.000    298.150
 OXIDANT     N2O                          1.0000000         0.000      0.000

 O/F=   24.30000  %FUEL=  3.952569  R,EQ.RATIO= 0.376071  PHI,EQ.RATIO= 0.376071

                 CHAMBER   THROAT     EXIT
 Pinf/P            1.0000   1.8208   27.987
 P, BAR            10.133   5.5648  0.36205
 T, K             1678.73  1474.12   784.78
 RHO, KG/CU M    2.1377 0 1.3370 0 1.6339-1
 H, KJ/KG         -73.412  -339.83 -1188.36
 U, KJ/KG         -547.39  -756.04 -1409.94
 G, KJ/KG        -13961.0 -12534.7 -7680.61
 S, KJ/(KG)(K)     8.2727   8.2727   8.2727

 M, (1/n)          29.448   29.448   29.448
 Cp, KJ/(KG)(K)    1.3135   1.2898   1.1544
 GAMMAs            1.2738   1.2803   1.3238
 SON VEL,M/SEC      777.0    730.0    541.6
 MACH NUMBER        0.000    1.000    2.757

 PERFORMANCE PARAMETERS

 Ae/At                      1.0000   4.0000
 CSTAR, M/SEC               1038.2   1038.2
 CF                         0.7031   1.4383
 Ivac, M/SEC                1300.1   1641.7
 Isp, M/SEC                  730.0   1493.3

 MASS FRACTIONS

 *CO2            0.12676   H2O             0.04402   *NO             0.00239
 NO2             0.00004   *N2             0.61020   *OH             0.00010
 *O2             0.21649

  * THERMODYNAMIC PROPERTIES FITTED TO 20000.K

 NOTE. WEIGHT FRACTION OF FUEL IN TOTAL FUELS AND OF OXIDANT IN TOTAL OXIDANTS

           THEORETICAL ROCKET PERFORMANCE ASSUMING FROZEN COMPOSITION

 Pin =   161.7 PSIA
 CASE = _______________

             REACTANT                    WT FRACTION      ENERGY      TEMP
                                          (SEE NOTE)     KJ/KG-MOL      K  
 FUEL        paraffin                     1.0000000  -1860600.000    298.150
 OXIDANT     N2O                          1.0000000         0.000      0.000

 O/F=   24.30000  %FUEL=  3.952569  R,EQ.RATIO= 0.376071  PHI,EQ.RATIO= 0.376071

                 CHAMBER   THROAT     EXIT
 Pinf/P            1.0000   1.8208   27.987
 P, BAR            11.146   6.1213  0.39825
 T, K             1678.75  1474.13   784.80
 RHO, KG/CU M    2.3515 0 1.4707 0 1.7973-1
 H, KJ/KG         -73.412  -339.83 -1188.37
 U, KJ/KG         -547.40  -756.05 -1409.95
 G, KJ/KG        -13915.9 -12495.2 -7659.60
 S, KJ/(KG)(K)     8.2457   8.2457   8.2457

 M, (1/n)          29.448   29.448   29.448
 Cp, KJ/(KG)(K)    1.3135   1.2898   1.1544
 GAMMAs            1.2738   1.2803   1.3238
 SON VEL,M/SEC      777.0    730.0    541.6
 MACH NUMBER        0.000    1.000    2.757

 PERFORMANCE PARAMETERS

 Ae/At                      1.0000   4.0000
 CSTAR, M/SEC               1038.2   1038.2
 CF                         0.7031   1.4383
 Ivac, M/SEC                1300.1   1641.7
 Isp, M/SEC                  730.0   1493.3

 MASS FRACTIONS

 *CO2            0.12676   H2O             0.04402   *NO             0.00239
 NO2             0.00004   *N2             0.61020   *OH             0.00010
 *O2             0.21649

  * THERMODYNAMIC PROPERTIES FITTED TO 20000.K

 NOTE. WEIGHT FRACTION OF FUEL IN TOTAL FUELS AND OF OXIDANT IN TOTAL OXIDANTS

           THEORETICAL ROCKET PERFORMANCE ASSUMING FROZEN COMPOSITION

 Pin =   176.4 PSIA
 CASE = _______________

             REACTANT                    WT FRACTION      ENERGY      TEMP
                                          (SEE NOTE)     KJ/KG-MOL      K  
 FUEL        paraffin                     1.0000000  -1860600.000    298.150
 OXIDANT     N2O                          1.0000000         0.000      0.000

 O/F=   24.30000  %FUEL=  3.952569  R,EQ.RATIO= 0.376071  PHI,EQ.RATIO= 0.376071

                 CHAMBER   THROAT     EXIT
 Pinf/P            1.0000   1.8208   27.987
 P, BAR            12.159   6.6777  0.43446
 T, K             1678.76  1474.15   784.81
 RHO, KG/CU M    2.5652 0 1.6044 0 1.9607-1
 H, KJ/KG         -73.412  -339.84 -1188.38
 U, KJ/KG         -547.40  -756.05 -1409.97
 G, KJ/KG        -13874.8 -12459.1 -7640.41
 S, KJ/(KG)(K)     8.2212   8.2212   8.2212

 M, (1/n)          29.448   29.448   29.448
 Cp, KJ/(KG)(K)    1.3135   1.2898   1.1544
 GAMMAs            1.2738   1.2803   1.3238
 SON VEL,M/SEC      777.0    730.0    541.6
 MACH NUMBER        0.000    1.000    2.757

 PERFORMANCE PARAMETERS

 Ae/At                      1.0000   4.0000
 CSTAR, M/SEC               1038.2   1038.2
 CF                         0.7031   1.4383
 Ivac, M/SEC                1300.2   1641.7
 Isp, M/SEC                  730.0   1493.3

 MASS FRACTIONS

 *CO2            0.12676   H2O             0.04402   *NO             0.00239
 NO2             0.00004   *N2             0.61020   *OH             0.00009
 *O2             0.21649

  * THERMODYNAMIC PROPERTIES FITTED TO 20000.K

 NOTE. WEIGHT FRACTION OF FUEL IN TOTAL FUELS AND OF OXIDANT IN TOTAL OXIDANTS

           THEORETICAL ROCKET PERFORMANCE ASSUMING FROZEN COMPOSITION

 Pin =   191.0 PSIA
 CASE = _______________

             REACTANT                    WT FRACTION      ENERGY      TEMP
                                          (SEE NOTE)     KJ/KG-MOL      K  
 FUEL        paraffin                     1.0000000  -1860600.000    298.150
 OXIDANT     N2O                          1.0000000         0.000      0.000

 O/F=   24.30000  %FUEL=  3.952569  R,EQ.RATIO= 0.376071  PHI,EQ.RATIO= 0.376071

                 CHAMBER   THROAT     EXIT
 Pinf/P            1.0000   1.8208   27.987
 P, BAR            13.172   7.2342  0.47066
 T, K             1678.78  1474.16   784.81
 RHO, KG/CU M    2.7790 0 1.7381 0 2.1240-1
 H, KJ/KG         -73.412  -339.84 -1188.39
 U, KJ/KG         -547.41  -756.06 -1409.98
 G, KJ/KG        -13837.0 -12425.9 -7622.75
 S, KJ/(KG)(K)     8.1986   8.1986   8.1986

 M, (1/n)          29.448   29.448   29.448
 Cp, KJ/(KG)(K)    1.3135   1.2898   1.1544
 GAMMAs            1.2738   1.2803   1.3238
 SON VEL,M/SEC      777.0    730.0    541.6
 MACH NUMBER        0.000    1.000    2.757

 PERFORMANCE PARAMETERS

 Ae/At                      1.0000   4.0000
 CSTAR, M/SEC               1038.2   1038.2
 CF                         0.7031   1.4383
 Ivac, M/SEC                1300.2   1641.7
 Isp, M/SEC                  730.0   1493.3

 MASS FRACTIONS

 *CO2            0.12676   H2O             0.04402   *NO             0.00239
 NO2             0.00004   *N2             0.61019   *OH             0.00009
 *O2             0.21649

  * THERMODYNAMIC PROPERTIES FITTED TO 20000.K

 NOTE. WEIGHT FRACTION OF FUEL IN TOTAL FUELS AND OF OXIDANT IN TOTAL OXIDANTS

           THEORETICAL ROCKET PERFORMANCE ASSUMING FROZEN COMPOSITION

 Pin =   205.7 PSIA
 CASE = _______________

             REACTANT                    WT FRACTION      ENERGY      TEMP
                                          (SEE NOTE)     KJ/KG-MOL      K  
 FUEL        paraffin                     1.0000000  -1860600.000    298.150
 OXIDANT     N2O                          1.0000000         0.000      0.000

 O/F=   24.30000  %FUEL=  3.952569  R,EQ.RATIO= 0.376071  PHI,EQ.RATIO= 0.376071

                 CHAMBER   THROAT     EXIT
 Pinf/P            1.0000   1.8208   27.987
 P, BAR            14.185   7.7907  0.50687
 T, K             1678.79  1474.17   784.82
 RHO, KG/CU M    2.9927 0 1.8718 0 2.2874-1
 H, KJ/KG         -73.412  -339.84 -1188.40
 U, KJ/KG         -547.41  -756.06 -1409.99
 G, KJ/KG        -13802.0 -12395.1 -7606.41
 S, KJ/(KG)(K)     8.1777   8.1777   8.1777

 M, (1/n)          29.448   29.448   29.448
 Cp, KJ/(KG)(K)    1.3135   1.2898   1.1544
 GAMMAs            1.2738   1.2803   1.3238
 SON VEL,M/SEC      777.0    730.0    541.6
 MACH NUMBER        0.000    1.000    2.757

 PERFORMANCE PARAMETERS

 Ae/At                      1.0000   4.0000
 CSTAR, M/SEC               1038.2   1038.2
 CF                         0.7031   1.4383
 Ivac, M/SEC                1300.2   1641.7
 Isp, M/SEC                  730.0   1493.3

 MASS FRACTIONS

 *CO2            0.12676   H2O             0.04402   *NO             0.00239
 NO2             0.00004   *N2             0.61019   *OH             0.00009
 *O2             0.21649

  * THERMODYNAMIC PROPERTIES FITTED TO 20000.K

 NOTE. WEIGHT FRACTION OF FUEL IN TOTAL FUELS AND OF OXIDANT IN TOTAL OXIDANTS

           THEORETICAL ROCKET PERFORMANCE ASSUMING FROZEN COMPOSITION

 Pin =   220.4 PSIA
 CASE = _______________

             REACTANT                    WT FRACTION      ENERGY      TEMP
                                          (SEE NOTE)     KJ/KG-MOL      K  
 FUEL        paraffin                     1.0000000  -1860600.000    298.150
 OXIDANT     N2O                          1.0000000         0.000      0.000

 O/F=   24.30000  %FUEL=  3.952569  R,EQ.RATIO= 0.376071  PHI,EQ.RATIO= 0.376071

                 CHAMBER   THROAT     EXIT
 Pinf/P            1.0000   1.8208   27.986
 P, BAR            15.199   8.3472  0.54307
 T, K             1678.80  1474.18   784.83
 RHO, KG/CU M    3.2065 0 2.0054 0 2.4508-1
 H, KJ/KG         -73.412  -339.84 -1188.40
 U, KJ/KG         -547.41  -756.07 -1409.99
 G, KJ/KG        -13769.4 -12366.5 -7591.18
 S, KJ/(KG)(K)     8.1582   8.1582   8.1582

 M, (1/n)          29.448   29.448   29.448
 Cp, KJ/(KG)(K)    1.3135   1.2898   1.1544
 GAMMAs            1.2738   1.2803   1.3238
 SON VEL,M/SEC      777.0    730.0    541.6
 MACH NUMBER        0.000    1.000    2.757

 PERFORMANCE PARAMETERS

 Ae/At                     1.00000   4.0000
 CSTAR, M/SEC               1038.2   1038.2
 CF                         0.7031   1.4383
 Ivac, M/SEC                1300.2   1641.7
 Isp, M/SEC                  730.0   1493.3

 MASS FRACTIONS

 *CO2            0.12676   H2O             0.04402   *NO             0.00239
 NO2             0.00005   *N2             0.61019   *OH             0.00009
 *O2             0.21649

  * THERMODYNAMIC PROPERTIES FITTED TO 20000.K

 NOTE. WEIGHT FRACTION OF FUEL IN TOTAL FUELS AND OF OXIDANT IN TOTAL OXIDANTS

           THEORETICAL ROCKET PERFORMANCE ASSUMING FROZEN COMPOSITION

 Pin =   235.1 PSIA
 CASE = _______________

             REACTANT                    WT FRACTION      ENERGY      TEMP
                                          (SEE NOTE)     KJ/KG-MOL      K  
 FUEL        paraffin                     1.0000000  -1860600.000    298.150
 OXIDANT     N2O                          1.0000000         0.000      0.000

 O/F=   24.30000  %FUEL=  3.952569  R,EQ.RATIO= 0.376071  PHI,EQ.RATIO= 0.376071

                 CHAMBER   THROAT     EXIT
 Pinf/P            1.0000   1.8208   27.986
 P, BAR            16.212   8.9037  0.57928
 T, K             1678.81  1474.19   784.84
 RHO, KG/CU M    3.4202 0 2.1391 0 2.6142-1
 H, KJ/KG         -73.412  -339.84 -1188.41
 U, KJ/KG         -547.41  -756.07 -1410.00
 G, KJ/KG        -13738.9 -12339.7 -7576.94
 S, KJ/(KG)(K)     8.1400   8.1400   8.1400

 M, (1/n)          29.448   29.448   29.448
 Cp, KJ/(KG)(K)    1.3135   1.2898   1.1544
 GAMMAs            1.2738   1.2802   1.3238
 SON VEL,M/SEC      777.0    730.0    541.6
 MACH NUMBER        0.000    1.000    2.757

 PERFORMANCE PARAMETERS

 Ae/At                      1.0000   4.0000
 CSTAR, M/SEC               1038.2   1038.2
 CF                         0.7031   1.4383
 Ivac, M/SEC                1300.2   1641.7
 Isp, M/SEC                  730.0   1493.3

 MASS FRACTIONS

 *CO2            0.12676   H2O             0.04402   *NO             0.00239
 NO2             0.00005   *N2             0.61019   *OH             0.00009
 *O2             0.21649

  * THERMODYNAMIC PROPERTIES FITTED TO 20000.K

 NOTE. WEIGHT FRACTION OF FUEL IN TOTAL FUELS AND OF OXIDANT IN TOTAL OXIDANTS

           THEORETICAL ROCKET PERFORMANCE ASSUMING FROZEN COMPOSITION

 Pin =   249.8 PSIA
 CASE = _______________

             REACTANT                    WT FRACTION      ENERGY      TEMP
                                          (SEE NOTE)     KJ/KG-MOL      K  
 FUEL        paraffin                     1.0000000  -1860600.000    298.150
 OXIDANT     N2O                          1.0000000         0.000      0.000

 O/F=   24.30000  %FUEL=  3.952569  R,EQ.RATIO= 0.376071  PHI,EQ.RATIO= 0.376071

                 CHAMBER   THROAT     EXIT
 Pinf/P            1.0000   1.8208   27.986
 P, BAR            17.225   9.4601  0.61549
 T, K             1678.82  1474.20   784.84
 RHO, KG/CU M    3.6340 0 2.2728 0 2.7775-1
 H, KJ/KG         -73.412  -339.84 -1188.41
 U, KJ/KG         -547.42  -756.07 -1410.01
 G, KJ/KG        -13710.2 -12314.5 -7563.57
 S, KJ/(KG)(K)     8.1228   8.1228   8.1228

 M, (1/n)          29.448   29.448   29.448
 Cp, KJ/(KG)(K)    1.3135   1.2898   1.1544
 GAMMAs            1.2738   1.2802   1.3238
 SON VEL,M/SEC      777.0    730.0    541.6
 MACH NUMBER        0.000    1.000    2.757

 PERFORMANCE PARAMETERS

 Ae/At                      1.0000   4.0000
 CSTAR, M/SEC               1038.2   1038.2
 CF                         0.7031   1.4383
 Ivac, M/SEC                1300.2   1641.7
 Isp, M/SEC                  730.0   1493.3

 MASS FRACTIONS

 *CO2            0.12676   H2O             0.04402   *NO             0.00239
 NO2             0.00005   *N2             0.61019   *OH             0.00009
 *O2             0.21649

  * THERMODYNAMIC PROPERTIES FITTED TO 20000.K

 NOTE. WEIGHT FRACTION OF FUEL IN TOTAL FUELS AND OF OXIDANT IN TOTAL OXIDANTS

           THEORETICAL ROCKET PERFORMANCE ASSUMING FROZEN COMPOSITION

 Pin =   264.5 PSIA
 CASE = _______________

             REACTANT                    WT FRACTION      ENERGY      TEMP
                                          (SEE NOTE)     KJ/KG-MOL      K  
 FUEL        paraffin                     1.0000000  -1860600.000    298.150
 OXIDANT     N2O                          1.0000000         0.000      0.000

 O/F=   24.30000  %FUEL=  3.952569  R,EQ.RATIO= 0.376071  PHI,EQ.RATIO= 0.376071

                 CHAMBER   THROAT     EXIT
 Pinf/P            1.0000   1.8208   27.986
 P, BAR            18.238   10.017  0.65169
 T, K             1678.83  1474.21   784.85
 RHO, KG/CU M    3.8477 0 2.4065 0 2.9409-1
 H, KJ/KG         -73.412  -339.84 -1188.42
 U, KJ/KG         -547.42  -756.08 -1410.02
 G, KJ/KG        -13683.2 -12290.8 -7550.95
 S, KJ/(KG)(K)     8.1067   8.1067   8.1067

 M, (1/n)          29.448   29.448   29.448
 Cp, KJ/(KG)(K)    1.3135   1.2898   1.1544
 GAMMAs            1.2738   1.2802   1.3238
 SON VEL,M/SEC      777.0    730.0    541.6
 MACH NUMBER        0.000    1.000    2.757

 PERFORMANCE PARAMETERS

 Ae/At                      1.0000   4.0000
 CSTAR, M/SEC               1038.2   1038.2
 CF                         0.7031   1.4383
 Ivac, M/SEC                1300.2   1641.7
 Isp, M/SEC                  730.0   1493.3

 MASS FRACTIONS

 *CO2            0.12676   H2O             0.04402   *NO             0.00239
 NO2             0.00005   *N2             0.61019   *OH             0.00009
 *O2             0.21649

  * THERMODYNAMIC PROPERTIES FITTED TO 20000.K

 NOTE. WEIGHT FRACTION OF FUEL IN TOTAL FUELS AND OF OXIDANT IN TOTAL OXIDANTS

           THEORETICAL ROCKET PERFORMANCE ASSUMING FROZEN COMPOSITION

 Pin =   279.2 PSIA
 CASE = _______________

             REACTANT                    WT FRACTION      ENERGY      TEMP
                                          (SEE NOTE)     KJ/KG-MOL      K  
 FUEL        paraffin                     1.0000000  -1860600.000    298.150
 OXIDANT     N2O                          1.0000000         0.000      0.000

 O/F=   24.30000  %FUEL=  3.952569  R,EQ.RATIO= 0.376071  PHI,EQ.RATIO= 0.376071

                 CHAMBER   THROAT     EXIT
 Pinf/P            1.0000   1.8208   27.986
 P, BAR            19.252   10.573  0.68790
 T, K             1678.84  1474.22   784.85
 RHO, KG/CU M    4.0615 0 2.5402 0 3.1043-1
 H, KJ/KG         -73.412  -339.85 -1188.42
 U, KJ/KG         -547.42  -756.08 -1410.02
 G, KJ/KG        -13657.6 -12268.4 -7539.02
 S, KJ/(KG)(K)     8.0914   8.0914   8.0914

 M, (1/n)          29.448   29.448   29.448
 Cp, KJ/(KG)(K)    1.3135   1.2898   1.1544
 GAMMAs            1.2738   1.2802   1.3238
 SON VEL,M/SEC      777.0    730.0    541.6
 MACH NUMBER        0.000    1.000    2.757

 PERFORMANCE PARAMETERS

 Ae/At                      1.0000   4.0000
 CSTAR, M/SEC               1038.2   1038.2
 CF                         0.7031   1.4383
 Ivac, M/SEC                1300.2   1641.7
 Isp, M/SEC                  730.0   1493.3

 MASS FRACTIONS

 *CO2            0.12676   H2O             0.04402   *NO             0.00239
 NO2             0.00005   *N2             0.61019   *OH             0.00008
 *O2             0.21649

  * THERMODYNAMIC PROPERTIES FITTED TO 20000.K

 NOTE. WEIGHT FRACTION OF FUEL IN TOTAL FUELS AND OF OXIDANT IN TOTAL OXIDANTS

           THEORETICAL ROCKET PERFORMANCE ASSUMING FROZEN COMPOSITION

 Pin =   293.9 PSIA
 CASE = _______________

             REACTANT                    WT FRACTION      ENERGY      TEMP
                                          (SEE NOTE)     KJ/KG-MOL      K  
 FUEL        paraffin                     1.0000000  -1860600.000    298.150
 OXIDANT     N2O                          1.0000000         0.000      0.000

 O/F=   24.30000  %FUEL=  3.952569  R,EQ.RATIO= 0.376071  PHI,EQ.RATIO= 0.376071

                 CHAMBER   THROAT     EXIT
 Pinf/P            1.0000   1.8208   27.986
 P, BAR            20.265   11.130  0.72411
 T, K             1678.85  1474.22   784.86
 RHO, KG/CU M    4.2752 0 2.6739 0 3.2676-1
 H, KJ/KG         -73.412  -339.85 -1188.43
 U, KJ/KG         -547.42  -756.08 -1410.03
 G, KJ/KG        -13633.4 -12247.1 -7527.70
 S, KJ/(KG)(K)     8.0769   8.0769   8.0769

 M, (1/n)          29.448   29.448   29.448
 Cp, KJ/(KG)(K)    1.3135   1.2898   1.1544
 GAMMAs            1.2738   1.2802   1.3237
 SON VEL,M/SEC      777.0    730.0    541.6
 MACH NUMBER        0.000    1.000    2.757

 PERFORMANCE PARAMETERS

 Ae/At                      1.0000   4.0000
 CSTAR, M/SEC               1038.2   1038.2
 CF                         0.7031   1.4383
 Ivac, M/SEC                1300.2   1641.7
 Isp, M/SEC                  730.0   1493.3

 MASS FRACTIONS

 *CO2            0.12676   H2O             0.04403   *NO             0.00239
 NO2             0.00005   *N2             0.61019   *OH             0.00008
 *O2             0.21649

  * THERMODYNAMIC PROPERTIES FITTED TO 20000.K

 NOTE. WEIGHT FRACTION OF FUEL IN TOTAL FUELS AND OF OXIDANT IN TOTAL OXIDANTS

           THEORETICAL ROCKET PERFORMANCE ASSUMING FROZEN COMPOSITION

 Pin =   308.6 PSIA
 CASE = _______________

             REACTANT                    WT FRACTION      ENERGY      TEMP
                                          (SEE NOTE)     KJ/KG-MOL      K  
 FUEL        paraffin                     1.0000000  -1860600.000    298.150
 OXIDANT     N2O                          1.0000000         0.000      0.000

 O/F=   24.30000  %FUEL=  3.952569  R,EQ.RATIO= 0.376071  PHI,EQ.RATIO= 0.376071

                 CHAMBER   THROAT     EXIT
 Pinf/P            1.0000   1.8208   27.986
 P, BAR            21.278   11.686  0.76031
 T, K             1678.85  1474.23   784.86
 RHO, KG/CU M    4.4890 0 2.8075 0 3.4310-1
 H, KJ/KG         -73.412  -339.85 -1188.43
 U, KJ/KG         -547.42  -756.08 -1410.03
 G, KJ/KG        -13610.3 -12226.8 -7516.93
 S, KJ/(KG)(K)     8.0632   8.0632   8.0632

 M, (1/n)          29.448   29.448   29.448
 Cp, KJ/(KG)(K)    1.3135   1.2898   1.1544
 GAMMAs            1.2738   1.2802   1.3237
 SON VEL,M/SEC      777.0    730.0    541.6
 MACH NUMBER        0.000    1.000    2.757

 PERFORMANCE PARAMETERS

 Ae/At                      1.0000   4.0000
 CSTAR, M/SEC               1038.2   1038.2
 CF                         0.7031   1.4383
 Ivac, M/SEC                1300.2   1641.7
 Isp, M/SEC                  730.0   1493.3

 MASS FRACTIONS

 *CO2            0.12676   H2O             0.04403   *NO             0.00239
 NO2             0.00005   *N2             0.61019   *OH             0.00008
 *O2             0.21649

  * THERMODYNAMIC PROPERTIES FITTED TO 20000.K

 NOTE. WEIGHT FRACTION OF FUEL IN TOTAL FUELS AND OF OXIDANT IN TOTAL OXIDANTS

           THEORETICAL ROCKET PERFORMANCE ASSUMING FROZEN COMPOSITION

 Pin =   323.3 PSIA
 CASE = _______________

             REACTANT                    WT FRACTION      ENERGY      TEMP
                                          (SEE NOTE)     KJ/KG-MOL      K  
 FUEL        paraffin                     1.0000000  -1860600.000    298.150
 OXIDANT     N2O                          1.0000000         0.000      0.000

 O/F=   24.30000  %FUEL=  3.952569  R,EQ.RATIO= 0.376071  PHI,EQ.RATIO= 0.376071

                 CHAMBER   THROAT     EXIT
 Pinf/P            1.0000   1.8208   27.986
 P, BAR            22.291   12.243  0.79652
 T, K             1678.86  1474.24   784.87
 RHO, KG/CU M    4.7027 0 2.9412 0 3.5944-1
 H, KJ/KG         -73.412  -339.85 -1188.44
 U, KJ/KG         -547.42  -756.09 -1410.04
 G, KJ/KG        -13588.3 -12207.5 -7506.66
 S, KJ/(KG)(K)     8.0500   8.0500   8.0500

 M, (1/n)          29.448   29.448   29.448
 Cp, KJ/(KG)(K)    1.3135   1.2898   1.1544
 GAMMAs            1.2738   1.2802   1.3237
 SON VEL,M/SEC      777.0    730.0    541.6
 MACH NUMBER        0.000    1.000    2.757

 PERFORMANCE PARAMETERS

 Ae/At                      1.0000   4.0000
 CSTAR, M/SEC               1038.2   1038.2
 CF                         0.7031   1.4383
 Ivac, M/SEC                1300.2   1641.7
 Isp, M/SEC                  730.0   1493.3

 MASS FRACTIONS

 *CO2            0.12676   H2O             0.04403   *NO             0.00239
 NO2             0.00006   *N2             0.61019   *OH             0.00008
 *O2             0.21649

  * THERMODYNAMIC PROPERTIES FITTED TO 20000.K

 NOTE. WEIGHT FRACTION OF FUEL IN TOTAL FUELS AND OF OXIDANT IN TOTAL OXIDANTS

           THEORETICAL ROCKET PERFORMANCE ASSUMING FROZEN COMPOSITION

 Pin =   338.0 PSIA
 CASE = _______________

             REACTANT                    WT FRACTION      ENERGY      TEMP
                                          (SEE NOTE)     KJ/KG-MOL      K  
 FUEL        paraffin                     1.0000000  -1860600.000    298.150
 OXIDANT     N2O                          1.0000000         0.000      0.000

 O/F=   24.30000  %FUEL=  3.952569  R,EQ.RATIO= 0.376071  PHI,EQ.RATIO= 0.376071

                 CHAMBER   THROAT     EXIT
 Pinf/P            1.0000   1.8208   27.986
 P, BAR            23.305   12.799  0.83272
 T, K             1678.87  1474.24   784.87
 RHO, KG/CU M    4.9165 0 3.0749 0 3.7577-1
 H, KJ/KG         -73.412  -339.85 -1188.44
 U, KJ/KG         -547.43  -756.09 -1410.04
 G, KJ/KG        -13567.3 -12189.1 -7496.85
 S, KJ/(KG)(K)     8.0375   8.0375   8.0375

 M, (1/n)          29.448   29.448   29.448
 Cp, KJ/(KG)(K)    1.3135   1.2898   1.1544
 GAMMAs            1.2738   1.2802   1.3237
 SON VEL,M/SEC      777.0    730.0    541.6
 MACH NUMBER        0.000    1.000    2.757

 PERFORMANCE PARAMETERS

 Ae/At                      1.0000   4.0000
 CSTAR, M/SEC               1038.2   1038.2
 CF                         0.7031   1.4383
 Ivac, M/SEC                1300.2   1641.7
 Isp, M/SEC                  730.0   1493.3

 MASS FRACTIONS

 *CO2            0.12676   H2O             0.04403   *NO             0.00239
 NO2             0.00006   *N2             0.61019   *OH             0.00008
 *O2             0.21649

  * THERMODYNAMIC PROPERTIES FITTED TO 20000.K

 NOTE. WEIGHT FRACTION OF FUEL IN TOTAL FUELS AND OF OXIDANT IN TOTAL OXIDANTS

           THEORETICAL ROCKET PERFORMANCE ASSUMING FROZEN COMPOSITION

 Pin =   352.7 PSIA
 CASE = _______________

             REACTANT                    WT FRACTION      ENERGY      TEMP
                                          (SEE NOTE)     KJ/KG-MOL      K  
 FUEL        paraffin                     1.0000000  -1860600.000    298.150
 OXIDANT     N2O                          1.0000000         0.000      0.000

 O/F=   24.30000  %FUEL=  3.952569  R,EQ.RATIO= 0.376071  PHI,EQ.RATIO= 0.376071

                 CHAMBER   THROAT     EXIT
 Pinf/P            1.0000   1.8208   27.986
 P, BAR            24.318   13.356  0.86893
 T, K             1678.87  1474.25   784.88
 RHO, KG/CU M    5.1302 0 3.2086 0 3.9211-1
 H, KJ/KG         -73.412  -339.85 -1188.44
 U, KJ/KG         -547.43  -756.09 -1410.05
 G, KJ/KG        -13547.2 -12171.4 -7487.45
 S, KJ/(KG)(K)     8.0255   8.0255   8.0255

 M, (1/n)          29.448   29.448   29.448
 Cp, KJ/(KG)(K)    1.3135   1.2898   1.1544
 GAMMAs            1.2738   1.2802   1.3237
 SON VEL,M/SEC      777.0    730.0    541.6
 MACH NUMBER        0.000    1.000    2.757

 PERFORMANCE PARAMETERS

 Ae/At                      1.0000   4.0000
 CSTAR, M/SEC               1038.2   1038.2
 CF                         0.7031   1.4383
 Ivac, M/SEC                1300.2   1641.7
 Isp, M/SEC                  730.0   1493.3

 MASS FRACTIONS

 *CO2            0.12676   H2O             0.04403   *NO             0.00239
 NO2             0.00006   *N2             0.61019   *OH             0.00008
 *O2             0.21649

  * THERMODYNAMIC PROPERTIES FITTED TO 20000.K

 NOTE. WEIGHT FRACTION OF FUEL IN TOTAL FUELS AND OF OXIDANT IN TOTAL OXIDANTS

           THEORETICAL ROCKET PERFORMANCE ASSUMING FROZEN COMPOSITION

 Pin =    14.7 PSIA
 CASE = _______________

             REACTANT                    WT FRACTION      ENERGY      TEMP
                                          (SEE NOTE)     KJ/KG-MOL      K  
 FUEL        paraffin                     1.0000000  -1860600.000    298.150
 OXIDANT     N2O                          1.0000000         0.000      0.000

 O/F=   24.50000  %FUEL=  3.921569  R,EQ.RATIO= 0.373001  PHI,EQ.RATIO= 0.373001

                 CHAMBER   THROAT     EXIT
 Pinf/P            1.0000   1.8212   28.023
 P, BAR            1.0132  0.55638  0.03616
 T, K             1669.04  1465.28   779.03
 RHO, KG/CU M    2.1500-1 1.3447-1 1.6437-2
 H, KJ/KG         -72.836  -337.79 -1181.16
 U, KJ/KG         -544.12  -751.53 -1401.13
 G, KJ/KG        -14951.5 -13400.0 -8125.88
 S, KJ/(KG)(K)     8.9145   8.9145   8.9145

 M, (1/n)          29.446   29.446   29.446
 Cp, KJ/(KG)(K)    1.3118   1.2880   1.1524
 GAMMAs            1.2743   1.2808   1.3246
 SON VEL,M/SEC      775.0    728.0    539.8
 MACH NUMBER        0.000    1.000    2.758

 PERFORMANCE PARAMETERS

 Ae/At                      1.0000   4.0000
 CSTAR, M/SEC               1035.1   1035.1
 CF                         0.7033   1.4384
 Ivac, M/SEC                1296.3   1636.6
 Isp, M/SEC                  727.9   1488.8

 MASS FRACTIONS

 *CO             0.00001   *CO2            0.12575   H2O             0.04364
 *NO             0.00231   NO2             0.00001   *N2             0.61044
 *O              0.00001   *OH             0.00016   *O2             0.21767

  * THERMODYNAMIC PROPERTIES FITTED TO 20000.K

 NOTE. WEIGHT FRACTION OF FUEL IN TOTAL FUELS AND OF OXIDANT IN TOTAL OXIDANTS

           THEORETICAL ROCKET PERFORMANCE ASSUMING FROZEN COMPOSITION

 Pin =    29.4 PSIA
 CASE = _______________

             REACTANT                    WT FRACTION      ENERGY      TEMP
                                          (SEE NOTE)     KJ/KG-MOL      K  
 FUEL        paraffin                     1.0000000  -1860600.000    298.150
 OXIDANT     N2O                          1.0000000         0.000      0.000

 O/F=   24.50000  %FUEL=  3.921569  R,EQ.RATIO= 0.373001  PHI,EQ.RATIO= 0.373001

                 CHAMBER   THROAT     EXIT
 Pinf/P            1.0000   1.8211   28.022
 P, BAR            2.0265   1.1128  0.07232
 T, K             1669.27  1465.48   779.17
 RHO, KG/CU M    4.2995-1 2.6891-1 3.2870-2
 H, KJ/KG         -72.836  -337.82 -1181.30
 U, KJ/KG         -544.17  -751.62 -1401.31
 G, KJ/KG        -14626.9 -13115.1 -7974.75
 S, KJ/(KG)(K)     8.7188   8.7188   8.7188

 M, (1/n)          29.446   29.446   29.446
 Cp, KJ/(KG)(K)    1.3118   1.2880   1.1524
 GAMMAs            1.2743   1.2808   1.3245
 SON VEL,M/SEC      775.0    728.0    539.8
 MACH NUMBER        0.000    1.000    2.758

 PERFORMANCE PARAMETERS

 Ae/At                      1.0000   4.0000
 CSTAR, M/SEC               1035.2   1035.2
 CF                         0.7033   1.4384
 Ivac, M/SEC                1296.4   1636.7
 Isp, M/SEC                  728.0   1488.9

 MASS FRACTIONS

 *CO             0.00001   *CO2            0.12576   H2O             0.04365
 *NO             0.00231   NO2             0.00002   *N2             0.61044
 *O              0.00001   *OH             0.00014   *O2             0.21768

  * THERMODYNAMIC PROPERTIES FITTED TO 20000.K

 NOTE. WEIGHT FRACTION OF FUEL IN TOTAL FUELS AND OF OXIDANT IN TOTAL OXIDANTS

           THEORETICAL ROCKET PERFORMANCE ASSUMING FROZEN COMPOSITION

 Pin =    44.1 PSIA
 CASE = _______________

             REACTANT                    WT FRACTION      ENERGY      TEMP
                                          (SEE NOTE)     KJ/KG-MOL      K  
 FUEL        paraffin                     1.0000000  -1860600.000    298.150
 OXIDANT     N2O                          1.0000000         0.000      0.000

 O/F=   24.50000  %FUEL=  3.921569  R,EQ.RATIO= 0.373001  PHI,EQ.RATIO= 0.373001

                 CHAMBER   THROAT     EXIT
 Pinf/P            1.0000   1.8211   28.022
 P, BAR            3.0397   1.6691  0.10848
 T, K             1669.38  1465.59   779.24
 RHO, KG/CU M    6.4488-1 4.0335-1 4.9302-2
 H, KJ/KG         -72.836  -337.83 -1181.37
 U, KJ/KG         -544.20  -751.66 -1401.39
 G, KJ/KG        -14436.7 -12948.2 -7886.20
 S, KJ/(KG)(K)     8.6043   8.6043   8.6043

 M, (1/n)          29.447   29.447   29.447
 Cp, KJ/(KG)(K)    1.3118   1.2880   1.1524
 GAMMAs            1.2743   1.2808   1.3245
 SON VEL,M/SEC      775.0    728.0    539.8
 MACH NUMBER        0.000    1.000    2.758

 PERFORMANCE PARAMETERS

 Ae/At                      1.0000   4.0000
 CSTAR, M/SEC               1035.2   1035.2
 CF                         0.7033   1.4384
 Ivac, M/SEC                1296.4   1636.8
 Isp, M/SEC                  728.0   1489.0

 MASS FRACTIONS

 *CO2            0.12576   H2O             0.04366   *NO             0.00231
 NO2             0.00002   *N2             0.61044   *OH             0.00012
 *O2             0.21768

  * THERMODYNAMIC PROPERTIES FITTED TO 20000.K

 NOTE. WEIGHT FRACTION OF FUEL IN TOTAL FUELS AND OF OXIDANT IN TOTAL OXIDANTS

           THEORETICAL ROCKET PERFORMANCE ASSUMING FROZEN COMPOSITION

 Pin =    58.8 PSIA
 CASE = _______________

             REACTANT                    WT FRACTION      ENERGY      TEMP
                                          (SEE NOTE)     KJ/KG-MOL      K  
 FUEL        paraffin                     1.0000000  -1860600.000    298.150
 OXIDANT     N2O                          1.0000000         0.000      0.000

 O/F=   24.50000  %FUEL=  3.921569  R,EQ.RATIO= 0.373001  PHI,EQ.RATIO= 0.373001

                 CHAMBER   THROAT     EXIT
 Pinf/P            1.0000   1.8211   28.022
 P, BAR            4.0530   2.2255  0.14464
 T, K             1669.45  1465.65   779.28
 RHO, KG/CU M    8.5981-1 5.3778-1 6.5734-2
 H, KJ/KG         -72.836  -337.84 -1181.41
 U, KJ/KG         -544.22  -751.68 -1401.45
 G, KJ/KG        -14301.7 -12829.7 -7823.32
 S, KJ/(KG)(K)     8.5231   8.5231   8.5231

 M, (1/n)          29.447   29.447   29.447
 Cp, KJ/(KG)(K)    1.3118   1.2880   1.1524
 GAMMAs            1.2743   1.2808   1.3245
 SON VEL,M/SEC      775.0    728.0    539.9
 MACH NUMBER        0.000    1.000    2.758

 PERFORMANCE PARAMETERS

 Ae/At                      1.0000   4.0000
 CSTAR, M/SEC               1035.2   1035.2
 CF                         0.7033   1.4384
 Ivac, M/SEC                1296.5   1636.8
 Isp, M/SEC                  728.0   1489.0

 MASS FRACTIONS

 *CO2            0.12576   H2O             0.04366   *NO             0.00231
 NO2             0.00002   *N2             0.61044   *OH             0.00012
 *O2             0.21768

  * THERMODYNAMIC PROPERTIES FITTED TO 20000.K

 NOTE. WEIGHT FRACTION OF FUEL IN TOTAL FUELS AND OF OXIDANT IN TOTAL OXIDANTS

           THEORETICAL ROCKET PERFORMANCE ASSUMING FROZEN COMPOSITION

 Pin =    73.5 PSIA
 CASE = _______________

             REACTANT                    WT FRACTION      ENERGY      TEMP
                                          (SEE NOTE)     KJ/KG-MOL      K  
 FUEL        paraffin                     1.0000000  -1860600.000    298.150
 OXIDANT     N2O                          1.0000000         0.000      0.000

 O/F=   24.50000  %FUEL=  3.921569  R,EQ.RATIO= 0.373001  PHI,EQ.RATIO= 0.373001

                 CHAMBER   THROAT     EXIT
 Pinf/P            1.0000   1.8211   28.021
 P, BAR            5.0663   2.7819  0.18080
 T, K             1669.50  1465.70   779.31
 RHO, KG/CU M    1.0747 0 6.7220-1 8.2165-2
 H, KJ/KG         -72.836  -337.85 -1181.44
 U, KJ/KG         -544.23  -751.70 -1401.49
 G, KJ/KG        -14197.0 -12737.8 -7774.52
 S, KJ/(KG)(K)     8.4601   8.4601   8.4601

 M, (1/n)          29.447   29.447   29.447
 Cp, KJ/(KG)(K)    1.3118   1.2880   1.1524
 GAMMAs            1.2743   1.2808   1.3245
 SON VEL,M/SEC      775.0    728.0    539.9
 MACH NUMBER        0.000    1.000    2.758

 PERFORMANCE PARAMETERS

 Ae/At                      1.0000   4.0000
 CSTAR, M/SEC               1035.2   1035.2
 CF                         0.7033   1.4384
 Ivac, M/SEC                1296.5   1636.8
 Isp, M/SEC                  728.0   1489.0

 MASS FRACTIONS

 *CO2            0.12576   H2O             0.04367   *NO             0.00231
 NO2             0.00003   *N2             0.61043   *OH             0.00011
 *O2             0.21768

  * THERMODYNAMIC PROPERTIES FITTED TO 20000.K

 NOTE. WEIGHT FRACTION OF FUEL IN TOTAL FUELS AND OF OXIDANT IN TOTAL OXIDANTS

           THEORETICAL ROCKET PERFORMANCE ASSUMING FROZEN COMPOSITION

 Pin =    88.2 PSIA
 CASE = _______________

             REACTANT                    WT FRACTION      ENERGY      TEMP
                                          (SEE NOTE)     KJ/KG-MOL      K  
 FUEL        paraffin                     1.0000000  -1860600.000    298.150
 OXIDANT     N2O                          1.0000000         0.000      0.000

 O/F=   24.50000  %FUEL=  3.921569  R,EQ.RATIO= 0.373001  PHI,EQ.RATIO= 0.373001

                 CHAMBER   THROAT     EXIT
 Pinf/P            1.0000   1.8211   28.021
 P, BAR            6.0795   3.3383  0.21696
 T, K             1669.54  1465.74   779.34
 RHO, KG/CU M    1.2897 0 8.0663-1 9.8596-2
 H, KJ/KG         -72.836  -337.86 -1181.47
 U, KJ/KG         -544.24  -751.71 -1401.52
 G, KJ/KG        -14111.4 -12662.7 -7734.62
 S, KJ/(KG)(K)     8.4086   8.4086   8.4086

 M, (1/n)          29.447   29.447   29.447
 Cp, KJ/(KG)(K)    1.3118   1.2881   1.1524
 GAMMAs            1.2743   1.2808   1.3245
 SON VEL,M/SEC      775.0    728.0    539.9
 MACH NUMBER        0.000    1.000    2.758

 PERFORMANCE PARAMETERS

 Ae/At                      1.0000   4.0000
 CSTAR, M/SEC               1035.2   1035.2
 CF                         0.7033   1.4384
 Ivac, M/SEC                1296.5   1636.8
 Isp, M/SEC                  728.0   1489.0

 MASS FRACTIONS

 *CO2            0.12576   H2O             0.04367   *NO             0.00231
 NO2             0.00003   *N2             0.61043   *OH             0.00011
 *O2             0.21768

  * THERMODYNAMIC PROPERTIES FITTED TO 20000.K

 NOTE. WEIGHT FRACTION OF FUEL IN TOTAL FUELS AND OF OXIDANT IN TOTAL OXIDANTS

           THEORETICAL ROCKET PERFORMANCE ASSUMING FROZEN COMPOSITION

 Pin =   102.9 PSIA
 CASE = _______________

             REACTANT                    WT FRACTION      ENERGY      TEMP
                                          (SEE NOTE)     KJ/KG-MOL      K  
 FUEL        paraffin                     1.0000000  -1860600.000    298.150
 OXIDANT     N2O                          1.0000000         0.000      0.000

 O/F=   24.50000  %FUEL=  3.921569  R,EQ.RATIO= 0.373001  PHI,EQ.RATIO= 0.373001

                 CHAMBER   THROAT     EXIT
 Pinf/P            1.0000   1.8211   28.021
 P, BAR            7.0927   3.8947  0.25312
 T, K             1669.57  1465.77   779.36
 RHO, KG/CU M    1.5046 0 9.4105-1 1.1503-1
 H, KJ/KG         -72.836  -337.86 -1181.48
 U, KJ/KG         -544.25  -751.73 -1401.54
 G, KJ/KG        -14039.0 -12599.1 -7700.88
 S, KJ/(KG)(K)     8.3651   8.3651   8.3651

 M, (1/n)          29.447   29.447   29.447
 Cp, KJ/(KG)(K)    1.3118   1.2881   1.1524
 GAMMAs            1.2743   1.2808   1.3245
 SON VEL,M/SEC      775.1    728.1    539.9
 MACH NUMBER        0.000    1.000    2.758

 PERFORMANCE PARAMETERS

 Ae/At                      1.0000   4.0000
 CSTAR, M/SEC               1035.3   1035.3
 CF                         0.7033   1.4384
 Ivac, M/SEC                1296.5   1636.8
 Isp, M/SEC                  728.0   1489.1

 MASS FRACTIONS

 *CO2            0.12576   H2O             0.04367   *NO             0.00232
 NO2             0.00003   *N2             0.61043   *OH             0.00010
 *O2             0.21768

  * THERMODYNAMIC PROPERTIES FITTED TO 20000.K

 NOTE. WEIGHT FRACTION OF FUEL IN TOTAL FUELS AND OF OXIDANT IN TOTAL OXIDANTS

           THEORETICAL ROCKET PERFORMANCE ASSUMING FROZEN COMPOSITION

 Pin =   117.6 PSIA
 CASE = _______________

             REACTANT                    WT FRACTION      ENERGY      TEMP
                                          (SEE NOTE)     KJ/KG-MOL      K  
 FUEL        paraffin                     1.0000000  -1860600.000    298.150
 OXIDANT     N2O                          1.0000000         0.000      0.000

 O/F=   24.50000  %FUEL=  3.921569  R,EQ.RATIO= 0.373001  PHI,EQ.RATIO= 0.373001

                 CHAMBER   THROAT     EXIT
 Pinf/P            1.0000   1.8211   28.021
 P, BAR            8.1060   4.4511  0.28928
 T, K             1669.60  1465.79   779.37
 RHO, KG/CU M    1.7195 0 1.0755 0 1.3146-1
 H, KJ/KG         -72.836  -337.86 -1181.50
 U, KJ/KG         -544.25  -751.73 -1401.56
 G, KJ/KG        -13976.2 -12544.1 -7671.65
 S, KJ/(KG)(K)     8.3274   8.3274   8.3274

 M, (1/n)          29.447   29.447   29.447
 Cp, KJ/(KG)(K)    1.3119   1.2881   1.1524
 GAMMAs            1.2743   1.2808   1.3245
 SON VEL,M/SEC      775.1    728.1    539.9
 MACH NUMBER        0.000    1.000    2.758

 PERFORMANCE PARAMETERS

 Ae/At                      1.0000   4.0000
 CSTAR, M/SEC               1035.3   1035.3
 CF                         0.7033   1.4384
 Ivac, M/SEC                1296.5   1636.9
 Isp, M/SEC                  728.0   1489.1

 MASS FRACTIONS

 *CO2            0.12576   H2O             0.04367   *NO             0.00232
 NO2             0.00003   *N2             0.61043   *OH             0.00010
 *O2             0.21768

  * THERMODYNAMIC PROPERTIES FITTED TO 20000.K

 NOTE. WEIGHT FRACTION OF FUEL IN TOTAL FUELS AND OF OXIDANT IN TOTAL OXIDANTS

           THEORETICAL ROCKET PERFORMANCE ASSUMING FROZEN COMPOSITION

 Pin =   132.3 PSIA
 CASE = _______________

             REACTANT                    WT FRACTION      ENERGY      TEMP
                                          (SEE NOTE)     KJ/KG-MOL      K  
 FUEL        paraffin                     1.0000000  -1860600.000    298.150
 OXIDANT     N2O                          1.0000000         0.000      0.000

 O/F=   24.50000  %FUEL=  3.921569  R,EQ.RATIO= 0.373001  PHI,EQ.RATIO= 0.373001

                 CHAMBER   THROAT     EXIT
 Pinf/P            1.0000   1.8211   28.021
 P, BAR            9.1192   5.0075  0.32545
 T, K             1669.62  1465.81   779.39
 RHO, KG/CU M    1.9344 0 1.2099 0 1.4789-1
 H, KJ/KG         -72.836  -337.86 -1181.51
 U, KJ/KG         -544.26  -751.74 -1401.58
 G, KJ/KG        -13920.9 -12495.5 -7645.86
 S, KJ/(KG)(K)     8.2941   8.2941   8.2941

 M, (1/n)          29.447   29.447   29.447
 Cp, KJ/(KG)(K)    1.3119   1.2881   1.1525
 GAMMAs            1.2743   1.2808   1.3245
 SON VEL,M/SEC      775.1    728.1    539.9
 MACH NUMBER        0.000    1.000    2.758

 PERFORMANCE PARAMETERS

 Ae/At                      1.0000   4.0000
 CSTAR, M/SEC               1035.3   1035.3
 CF                         0.7033   1.4384
 Ivac, M/SEC                1296.5   1636.9
 Isp, M/SEC                  728.1   1489.1

 MASS FRACTIONS

 *CO2            0.12576   H2O             0.04367   *NO             0.00232
 NO2             0.00004   *N2             0.61043   *OH             0.00009
 *O2             0.21768

  * THERMODYNAMIC PROPERTIES FITTED TO 20000.K

 NOTE. WEIGHT FRACTION OF FUEL IN TOTAL FUELS AND OF OXIDANT IN TOTAL OXIDANTS

           THEORETICAL ROCKET PERFORMANCE ASSUMING FROZEN COMPOSITION

 Pin =   147.0 PSIA
 CASE = _______________

             REACTANT                    WT FRACTION      ENERGY      TEMP
                                          (SEE NOTE)     KJ/KG-MOL      K  
 FUEL        paraffin                     1.0000000  -1860600.000    298.150
 OXIDANT     N2O                          1.0000000         0.000      0.000

 O/F=   24.50000  %FUEL=  3.921569  R,EQ.RATIO= 0.373001  PHI,EQ.RATIO= 0.373001

                 CHAMBER   THROAT     EXIT
 Pinf/P            1.0000   1.8211   28.021
 P, BAR            10.133   5.5638  0.36161
 T, K             1669.64  1465.83   779.40
 RHO, KG/CU M    2.1493 0 1.3443 0 1.6432-1
 H, KJ/KG         -72.836  -337.87 -1181.52
 U, KJ/KG         -544.26  -751.75 -1401.59
 G, KJ/KG        -13871.4 -12452.0 -7622.78
 S, KJ/(KG)(K)     8.2644   8.2644   8.2644

 M, (1/n)          29.447   29.447   29.447
 Cp, KJ/(KG)(K)    1.3119   1.2881   1.1525
 GAMMAs            1.2743   1.2807   1.3245
 SON VEL,M/SEC      775.1    728.1    539.9
 MACH NUMBER        0.000    1.000    2.758

 PERFORMANCE PARAMETERS

 Ae/At                      1.0000   4.0000
 CSTAR, M/SEC               1035.3   1035.3
 CF                         0.7033   1.4384
 Ivac, M/SEC                1296.5   1636.9
 Isp, M/SEC                  728.1   1489.1

 MASS FRACTIONS

 *CO2            0.12576   H2O             0.04367   *NO             0.00232
 NO2             0.00004   *N2             0.61043   *OH             0.00009
 *O2             0.21768

  * THERMODYNAMIC PROPERTIES FITTED TO 20000.K

 NOTE. WEIGHT FRACTION OF FUEL IN TOTAL FUELS AND OF OXIDANT IN TOTAL OXIDANTS

           THEORETICAL ROCKET PERFORMANCE ASSUMING FROZEN COMPOSITION

 Pin =   161.7 PSIA
 CASE = _______________

             REACTANT                    WT FRACTION      ENERGY      TEMP
                                          (SEE NOTE)     KJ/KG-MOL      K  
 FUEL        paraffin                     1.0000000  -1860600.000    298.150
 OXIDANT     N2O                          1.0000000         0.000      0.000

 O/F=   24.50000  %FUEL=  3.921569  R,EQ.RATIO= 0.373001  PHI,EQ.RATIO= 0.373001

                 CHAMBER   THROAT     EXIT
 Pinf/P            1.0000   1.8211   28.021
 P, BAR            11.146   6.1202  0.39777
 T, K             1669.66  1465.84   779.41
 RHO, KG/CU M    2.3642 0 1.4787 0 1.8075-1
 H, KJ/KG         -72.836  -337.87 -1181.53
 U, KJ/KG         -544.27  -751.75 -1401.60
 G, KJ/KG        -13826.6 -12412.7 -7601.91
 S, KJ/(KG)(K)     8.2375   8.2375   8.2375

 M, (1/n)          29.447   29.447   29.447
 Cp, KJ/(KG)(K)    1.3119   1.2881   1.1525
 GAMMAs            1.2743   1.2807   1.3245
 SON VEL,M/SEC      775.1    728.1    539.9
 MACH NUMBER        0.000    1.000    2.758

 PERFORMANCE PARAMETERS

 Ae/At                      1.0000   4.0000
 CSTAR, M/SEC               1035.3   1035.3
 CF                         0.7033   1.4384
 Ivac, M/SEC                1296.5   1636.9
 Isp, M/SEC                  728.1   1489.1

 MASS FRACTIONS

 *CO2            0.12576   H2O             0.04368   *NO             0.00232
 NO2             0.00004   *N2             0.61043   *OH             0.00009
 *O2             0.21768

  * THERMODYNAMIC PROPERTIES FITTED TO 20000.K

 NOTE. WEIGHT FRACTION OF FUEL IN TOTAL FUELS AND OF OXIDANT IN TOTAL OXIDANTS

           THEORETICAL ROCKET PERFORMANCE ASSUMING FROZEN COMPOSITION

 Pin =   176.4 PSIA
 CASE = _______________

             REACTANT                    WT FRACTION      ENERGY      TEMP
                                          (SEE NOTE)     KJ/KG-MOL      K  
 FUEL        paraffin                     1.0000000  -1860600.000    298.150
 OXIDANT     N2O                          1.0000000         0.000      0.000

 O/F=   24.50000  %FUEL=  3.921569  R,EQ.RATIO= 0.373001  PHI,EQ.RATIO= 0.373001

                 CHAMBER   THROAT     EXIT
 Pinf/P            1.0000   1.8211   28.021
 P, BAR            12.159   6.6766  0.43393
 T, K             1669.67  1465.86   779.42
 RHO, KG/CU M    2.5791 0 1.6131 0 1.9718-1
 H, KJ/KG         -72.836  -337.87 -1181.54
 U, KJ/KG         -544.27  -751.76 -1401.61
 G, KJ/KG        -13785.7 -12376.8 -7582.84
 S, KJ/(KG)(K)     8.2129   8.2129   8.2129

 M, (1/n)          29.447   29.447   29.447
 Cp, KJ/(KG)(K)    1.3119   1.2881   1.1525
 GAMMAs            1.2743   1.2807   1.3245
 SON VEL,M/SEC      775.1    728.1    539.9
 MACH NUMBER        0.000    1.000    2.758

 PERFORMANCE PARAMETERS

 Ae/At                      1.0000   4.0000
 CSTAR, M/SEC               1035.3   1035.3
 CF                         0.7033   1.4384
 Ivac, M/SEC                1296.5   1636.9
 Isp, M/SEC                  728.1   1489.1

 MASS FRACTIONS

 *CO2            0.12576   H2O             0.04368   *NO             0.00232
 NO2             0.00004   *N2             0.61043   *OH             0.00009
 *O2             0.21768

  * THERMODYNAMIC PROPERTIES FITTED TO 20000.K

 NOTE. WEIGHT FRACTION OF FUEL IN TOTAL FUELS AND OF OXIDANT IN TOTAL OXIDANTS

           THEORETICAL ROCKET PERFORMANCE ASSUMING FROZEN COMPOSITION

 Pin =   191.0 PSIA
 CASE = _______________

             REACTANT                    WT FRACTION      ENERGY      TEMP
                                          (SEE NOTE)     KJ/KG-MOL      K  
 FUEL        paraffin                     1.0000000  -1860600.000    298.150
 OXIDANT     N2O                          1.0000000         0.000      0.000

 O/F=   24.50000  %FUEL=  3.921569  R,EQ.RATIO= 0.373001  PHI,EQ.RATIO= 0.373001

                 CHAMBER   THROAT     EXIT
 Pinf/P            1.0000   1.8211   28.021
 P, BAR            13.172   7.2330  0.47009
 T, K             1669.68  1465.87   779.43
 RHO, KG/CU M    2.7941 0 1.7476 0 2.1361-1
 H, KJ/KG         -72.836  -337.87 -1181.55
 U, KJ/KG         -544.27  -751.76 -1401.62
 G, KJ/KG        -13748.0 -12343.8 -7565.30
 S, KJ/(KG)(K)     8.1903   8.1903   8.1903

 M, (1/n)          29.447   29.447   29.447
 Cp, KJ/(KG)(K)    1.3119   1.2881   1.1525
 GAMMAs            1.2743   1.2807   1.3245
 SON VEL,M/SEC      775.1    728.1    539.9
 MACH NUMBER        0.000    1.000    2.758

 PERFORMANCE PARAMETERS

 Ae/At                      1.0000   4.0000
 CSTAR, M/SEC               1035.3   1035.3
 CF                         0.7033   1.4384
 Ivac, M/SEC                1296.5   1636.9
 Isp, M/SEC                  728.1   1489.1

 MASS FRACTIONS

 *CO2            0.12576   H2O             0.04368   *NO             0.00232
 NO2             0.00004   *N2             0.61043   *OH             0.00009
 *O2             0.21768

  * THERMODYNAMIC PROPERTIES FITTED TO 20000.K

 NOTE. WEIGHT FRACTION OF FUEL IN TOTAL FUELS AND OF OXIDANT IN TOTAL OXIDANTS

           THEORETICAL ROCKET PERFORMANCE ASSUMING FROZEN COMPOSITION

 Pin =   205.7 PSIA
 CASE = _______________

             REACTANT                    WT FRACTION      ENERGY      TEMP
                                          (SEE NOTE)     KJ/KG-MOL      K  
 FUEL        paraffin                     1.0000000  -1860600.000    298.150
 OXIDANT     N2O                          1.0000000         0.000      0.000

 O/F=   24.50000  %FUEL=  3.921569  R,EQ.RATIO= 0.373001  PHI,EQ.RATIO= 0.373001

                 CHAMBER   THROAT     EXIT
 Pinf/P            1.0000   1.8211   28.020
 P, BAR            14.185   7.7894  0.50625
 T, K             1669.70  1465.88   779.44
 RHO, KG/CU M    3.0090 0 1.8820 0 2.3004-1
 H, KJ/KG         -72.836  -337.87 -1181.56
 U, KJ/KG         -544.28  -751.77 -1401.63
 G, KJ/KG        -13713.2 -12313.2 -7549.06
 S, KJ/(KG)(K)     8.1694   8.1694   8.1694

 M, (1/n)          29.447   29.447   29.447
 Cp, KJ/(KG)(K)    1.3119   1.2881   1.1525
 GAMMAs            1.2743   1.2807   1.3245
 SON VEL,M/SEC      775.1    728.1    539.9
 MACH NUMBER        0.000    1.000    2.758

 PERFORMANCE PARAMETERS

 Ae/At                      1.0000   4.0000
 CSTAR, M/SEC               1035.3   1035.3
 CF                         0.7032   1.4384
 Ivac, M/SEC                1296.5   1636.9
 Isp, M/SEC                  728.1   1489.1

 MASS FRACTIONS

 *CO2            0.12576   H2O             0.04368   *NO             0.00232
 NO2             0.00004   *N2             0.61043   *OH             0.00009
 *O2             0.21768

  * THERMODYNAMIC PROPERTIES FITTED TO 20000.K

 NOTE. WEIGHT FRACTION OF FUEL IN TOTAL FUELS AND OF OXIDANT IN TOTAL OXIDANTS

           THEORETICAL ROCKET PERFORMANCE ASSUMING FROZEN COMPOSITION

 Pin =   220.4 PSIA
 CASE = _______________

             REACTANT                    WT FRACTION      ENERGY      TEMP
                                          (SEE NOTE)     KJ/KG-MOL      K  
 FUEL        paraffin                     1.0000000  -1860600.000    298.150
 OXIDANT     N2O                          1.0000000         0.000      0.000

 O/F=   24.50000  %FUEL=  3.921569  R,EQ.RATIO= 0.373001  PHI,EQ.RATIO= 0.373001

                 CHAMBER   THROAT     EXIT
 Pinf/P            1.0000   1.8211   28.020
 P, BAR            15.199   8.3458  0.54242
 T, K             1669.71  1465.89   779.44
 RHO, KG/CU M    3.2239 0 2.0164 0 2.4647-1
 H, KJ/KG         -72.836  -337.88 -1181.56
 U, KJ/KG         -544.28  -751.77 -1401.64
 G, KJ/KG        -13680.8 -12284.7 -7533.94
 S, KJ/(KG)(K)     8.1499   8.1499   8.1499

 M, (1/n)          29.447   29.447   29.447
 Cp, KJ/(KG)(K)    1.3119   1.2881   1.1525
 GAMMAs            1.2743   1.2807   1.3245
 SON VEL,M/SEC      775.1    728.1    539.9
 MACH NUMBER        0.000    1.000    2.758

 PERFORMANCE PARAMETERS

 Ae/At                      1.0000   4.0000
 CSTAR, M/SEC               1035.3   1035.3
 CF                         0.7032   1.4384
 Ivac, M/SEC                1296.6   1636.9
 Isp, M/SEC                  728.1   1489.1

 MASS FRACTIONS

 *CO2            0.12576   H2O             0.04368   *NO             0.00232
 NO2             0.00005   *N2             0.61043   *OH             0.00008
 *O2             0.21768

  * THERMODYNAMIC PROPERTIES FITTED TO 20000.K

 NOTE. WEIGHT FRACTION OF FUEL IN TOTAL FUELS AND OF OXIDANT IN TOTAL OXIDANTS

           THEORETICAL ROCKET PERFORMANCE ASSUMING FROZEN COMPOSITION

 Pin =   235.1 PSIA
 CASE = _______________

             REACTANT                    WT FRACTION      ENERGY      TEMP
                                          (SEE NOTE)     KJ/KG-MOL      K  
 FUEL        paraffin                     1.0000000  -1860600.000    298.150
 OXIDANT     N2O                          1.0000000         0.000      0.000

 O/F=   24.50000  %FUEL=  3.921569  R,EQ.RATIO= 0.373001  PHI,EQ.RATIO= 0.373001

                 CHAMBER   THROAT     EXIT
 Pinf/P            1.0000   1.8211   28.020
 P, BAR            16.212   8.9022  0.57858
 T, K             1669.72  1465.90   779.45
 RHO, KG/CU M    3.4388 0 2.1508 0 2.6290-1
 H, KJ/KG         -72.836  -337.88 -1181.57
 U, KJ/KG         -544.28  -751.77 -1401.65
 G, KJ/KG        -13650.4 -12258.1 -7519.79
 S, KJ/(KG)(K)     8.1317   8.1317   8.1317

 M, (1/n)          29.447   29.447   29.447
 Cp, KJ/(KG)(K)    1.3119   1.2881   1.1525
 GAMMAs            1.2743   1.2807   1.3245
 SON VEL,M/SEC      775.1    728.1    539.9
 MACH NUMBER        0.000    1.000    2.758

 PERFORMANCE PARAMETERS

 Ae/At                      1.0000   4.0000
 CSTAR, M/SEC               1035.3   1035.3
 CF                         0.7032   1.4384
 Ivac, M/SEC                1296.6   1636.9
 Isp, M/SEC                  728.1   1489.1

 MASS FRACTIONS

 *CO2            0.12576   H2O             0.04368   *NO             0.00232
 NO2             0.00005   *N2             0.61043   *OH             0.00008
 *O2             0.21768

  * THERMODYNAMIC PROPERTIES FITTED TO 20000.K

 NOTE. WEIGHT FRACTION OF FUEL IN TOTAL FUELS AND OF OXIDANT IN TOTAL OXIDANTS

           THEORETICAL ROCKET PERFORMANCE ASSUMING FROZEN COMPOSITION

 Pin =   249.8 PSIA
 CASE = _______________

             REACTANT                    WT FRACTION      ENERGY      TEMP
                                          (SEE NOTE)     KJ/KG-MOL      K  
 FUEL        paraffin                     1.0000000  -1860600.000    298.150
 OXIDANT     N2O                          1.0000000         0.000      0.000

 O/F=   24.50000  %FUEL=  3.921569  R,EQ.RATIO= 0.373001  PHI,EQ.RATIO= 0.373001

                 CHAMBER   THROAT     EXIT
 Pinf/P            1.0000   1.8211   28.020
 P, BAR            17.225   9.4586  0.61474
 T, K             1669.72  1465.91   779.45
 RHO, KG/CU M    3.6537 0 2.2852 0 2.7933-1
 H, KJ/KG         -72.836  -337.88 -1181.57
 U, KJ/KG         -544.28  -751.78 -1401.65
 G, KJ/KG        -13621.9 -12233.1 -7506.50
 S, KJ/(KG)(K)     8.1146   8.1146   8.1146

 M, (1/n)          29.447   29.447   29.447
 Cp, KJ/(KG)(K)    1.3119   1.2881   1.1525
 GAMMAs            1.2743   1.2807   1.3245
 SON VEL,M/SEC      775.1    728.1    539.9
 MACH NUMBER        0.000    1.000    2.758

 PERFORMANCE PARAMETERS

 Ae/At                      1.0000   4.0000
 CSTAR, M/SEC               1035.3   1035.3
 CF                         0.7032   1.4384
 Ivac, M/SEC                1296.6   1636.9
 Isp, M/SEC                  728.1   1489.1

 MASS FRACTIONS

 *CO2            0.12576   H2O             0.04368   *NO             0.00232
 NO2             0.00005   *N2             0.61043   *OH             0.00008
 *O2             0.21768

  * THERMODYNAMIC PROPERTIES FITTED TO 20000.K

 NOTE. WEIGHT FRACTION OF FUEL IN TOTAL FUELS AND OF OXIDANT IN TOTAL OXIDANTS

           THEORETICAL ROCKET PERFORMANCE ASSUMING FROZEN COMPOSITION

 Pin =   264.5 PSIA
 CASE = _______________

             REACTANT                    WT FRACTION      ENERGY      TEMP
                                          (SEE NOTE)     KJ/KG-MOL      K  
 FUEL        paraffin                     1.0000000  -1860600.000    298.150
 OXIDANT     N2O                          1.0000000         0.000      0.000

 O/F=   24.50000  %FUEL=  3.921569  R,EQ.RATIO= 0.373001  PHI,EQ.RATIO= 0.373001

                 CHAMBER   THROAT     EXIT
 Pinf/P            1.0000   1.8211   28.020
 P, BAR            18.238   10.015  0.65090
 T, K             1669.73  1465.91   779.46
 RHO, KG/CU M    3.8686 0 2.4196 0 2.9576-1
 H, KJ/KG         -72.836  -337.88 -1181.58
 U, KJ/KG         -544.29  -751.78 -1401.66
 G, KJ/KG        -13595.0 -12209.5 -7493.97
 S, KJ/(KG)(K)     8.0984   8.0984   8.0984

 M, (1/n)          29.448   29.448   29.448
 Cp, KJ/(KG)(K)    1.3119   1.2881   1.1525
 GAMMAs            1.2743   1.2807   1.3245
 SON VEL,M/SEC      775.1    728.1    539.9
 MACH NUMBER        0.000    1.000    2.758

 PERFORMANCE PARAMETERS

 Ae/At                      1.0000   4.0000
 CSTAR, M/SEC               1035.3   1035.3
 CF                         0.7032   1.4384
 Ivac, M/SEC                1296.6   1636.9
 Isp, M/SEC                  728.1   1489.1

 MASS FRACTIONS

 *CO2            0.12576   H2O             0.04368   *NO             0.00232
 NO2             0.00005   *N2             0.61043   *OH             0.00008
 *O2             0.21768

  * THERMODYNAMIC PROPERTIES FITTED TO 20000.K

 NOTE. WEIGHT FRACTION OF FUEL IN TOTAL FUELS AND OF OXIDANT IN TOTAL OXIDANTS

           THEORETICAL ROCKET PERFORMANCE ASSUMING FROZEN COMPOSITION

 Pin =   279.2 PSIA
 CASE = _______________

             REACTANT                    WT FRACTION      ENERGY      TEMP
                                          (SEE NOTE)     KJ/KG-MOL      K  
 FUEL        paraffin                     1.0000000  -1860600.000    298.150
 OXIDANT     N2O                          1.0000000         0.000      0.000

 O/F=   24.50000  %FUEL=  3.921569  R,EQ.RATIO= 0.373001  PHI,EQ.RATIO= 0.373001

                 CHAMBER   THROAT     EXIT
 Pinf/P            1.0000   1.8211   28.020
 P, BAR            19.252   10.571  0.68707
 T, K             1669.74  1465.92   779.47
 RHO, KG/CU M    4.0835 0 2.5541 0 3.1219-1
 H, KJ/KG         -72.836  -337.88 -1181.58
 U, KJ/KG         -544.29  -751.78 -1401.66
 G, KJ/KG        -13569.6 -12187.1 -7482.12
 S, KJ/(KG)(K)     8.0832   8.0832   8.0832

 M, (1/n)          29.448   29.448   29.448
 Cp, KJ/(KG)(K)    1.3119   1.2881   1.1525
 GAMMAs            1.2743   1.2807   1.3245
 SON VEL,M/SEC      775.1    728.1    539.9
 MACH NUMBER        0.000    1.000    2.758

 PERFORMANCE PARAMETERS

 Ae/At                      1.0000   4.0000
 CSTAR, M/SEC               1035.3   1035.3
 CF                         0.7032   1.4384
 Ivac, M/SEC                1296.6   1636.9
 Isp, M/SEC                  728.1   1489.1

 MASS FRACTIONS

 *CO2            0.12576   H2O             0.04368   *NO             0.00232
 NO2             0.00005   *N2             0.61042   *OH             0.00008
 *O2             0.21768

  * THERMODYNAMIC PROPERTIES FITTED TO 20000.K

 NOTE. WEIGHT FRACTION OF FUEL IN TOTAL FUELS AND OF OXIDANT IN TOTAL OXIDANTS

           THEORETICAL ROCKET PERFORMANCE ASSUMING FROZEN COMPOSITION

 Pin =   293.9 PSIA
 CASE = _______________

             REACTANT                    WT FRACTION      ENERGY      TEMP
                                          (SEE NOTE)     KJ/KG-MOL      K  
 FUEL        paraffin                     1.0000000  -1860600.000    298.150
 OXIDANT     N2O                          1.0000000         0.000      0.000

 O/F=   24.50000  %FUEL=  3.921569  R,EQ.RATIO= 0.373001  PHI,EQ.RATIO= 0.373001

                 CHAMBER   THROAT     EXIT
 Pinf/P            1.0000   1.8211   28.020
 P, BAR            20.265   11.128  0.72323
 T, K             1669.75  1465.93   779.47
 RHO, KG/CU M    4.2984 0 2.6885 0 3.2862-1
 H, KJ/KG         -72.836  -337.88 -1181.59
 U, KJ/KG         -544.29  -751.78 -1401.67
 G, KJ/KG        -13545.5 -12166.0 -7470.87
 S, KJ/(KG)(K)     8.0687   8.0687   8.0687

 M, (1/n)          29.448   29.448   29.448
 Cp, KJ/(KG)(K)    1.3119   1.2881   1.1525
 GAMMAs            1.2743   1.2807   1.3245
 SON VEL,M/SEC      775.1    728.1    539.9
 MACH NUMBER        0.000    1.000    2.758

 PERFORMANCE PARAMETERS

 Ae/At                      1.0000   4.0000
 CSTAR, M/SEC               1035.3   1035.3
 CF                         0.7032   1.4384
 Ivac, M/SEC                1296.6   1636.9
 Isp, M/SEC                  728.1   1489.1

 MASS FRACTIONS

 *CO2            0.12576   H2O             0.04368   *NO             0.00232
 NO2             0.00005   *N2             0.61042   *OH             0.00008
 *O2             0.21768

  * THERMODYNAMIC PROPERTIES FITTED TO 20000.K

 NOTE. WEIGHT FRACTION OF FUEL IN TOTAL FUELS AND OF OXIDANT IN TOTAL OXIDANTS

           THEORETICAL ROCKET PERFORMANCE ASSUMING FROZEN COMPOSITION

 Pin =   308.6 PSIA
 CASE = _______________

             REACTANT                    WT FRACTION      ENERGY      TEMP
                                          (SEE NOTE)     KJ/KG-MOL      K  
 FUEL        paraffin                     1.0000000  -1860600.000    298.150
 OXIDANT     N2O                          1.0000000         0.000      0.000

 O/F=   24.50000  %FUEL=  3.921569  R,EQ.RATIO= 0.373001  PHI,EQ.RATIO= 0.373001

                 CHAMBER   THROAT     EXIT
 Pinf/P            1.0000   1.8211   28.020
 P, BAR            21.278   11.684  0.75939
 T, K             1669.75  1465.93   779.47
 RHO, KG/CU M    4.5133 0 2.8229 0 3.4505-1
 H, KJ/KG         -72.836  -337.88 -1181.59
 U, KJ/KG         -544.29  -751.79 -1401.67
 G, KJ/KG        -13522.5 -12145.8 -7460.17
 S, KJ/(KG)(K)     8.0549   8.0549   8.0549

 M, (1/n)          29.448   29.448   29.448
 Cp, KJ/(KG)(K)    1.3119   1.2881   1.1525
 GAMMAs            1.2743   1.2807   1.3245
 SON VEL,M/SEC      775.1    728.1    539.9
 MACH NUMBER        0.000    1.000    2.758

 PERFORMANCE PARAMETERS

 Ae/At                      1.0000   4.0000
 CSTAR, M/SEC               1035.3   1035.3
 CF                         0.7032   1.4384
 Ivac, M/SEC                1296.6   1636.9
 Isp, M/SEC                  728.1   1489.1

 MASS FRACTIONS

 *CO2            0.12576   H2O             0.04368   *NO             0.00232
 NO2             0.00005   *N2             0.61042   *OH             0.00008
 *O2             0.21768

  * THERMODYNAMIC PROPERTIES FITTED TO 20000.K

 NOTE. WEIGHT FRACTION OF FUEL IN TOTAL FUELS AND OF OXIDANT IN TOTAL OXIDANTS

           THEORETICAL ROCKET PERFORMANCE ASSUMING FROZEN COMPOSITION

 Pin =   323.3 PSIA
 CASE = _______________

             REACTANT                    WT FRACTION      ENERGY      TEMP
                                          (SEE NOTE)     KJ/KG-MOL      K  
 FUEL        paraffin                     1.0000000  -1860600.000    298.150
 OXIDANT     N2O                          1.0000000         0.000      0.000

 O/F=   24.50000  %FUEL=  3.921569  R,EQ.RATIO= 0.373001  PHI,EQ.RATIO= 0.373001

                 CHAMBER   THROAT     EXIT
 Pinf/P            1.0000   1.8211   28.020
 P, BAR            22.291   12.241  0.79555
 T, K             1669.76  1465.94   779.48
 RHO, KG/CU M    4.7282 0 2.9573 0 3.6148-1
 H, KJ/KG         -72.836  -337.88 -1181.59
 U, KJ/KG         -544.29  -751.79 -1401.68
 G, KJ/KG        -13500.7 -12126.6 -7449.97
 S, KJ/(KG)(K)     8.0418   8.0418   8.0418

 M, (1/n)          29.448   29.448   29.448
 Cp, KJ/(KG)(K)    1.3119   1.2881   1.1525
 GAMMAs            1.2743   1.2807   1.3245
 SON VEL,M/SEC      775.1    728.1    539.9
 MACH NUMBER        0.000    1.000    2.758

 PERFORMANCE PARAMETERS

 Ae/At                      1.0000   4.0000
 CSTAR, M/SEC               1035.3   1035.3
 CF                         0.7032   1.4384
 Ivac, M/SEC                1296.6   1636.9
 Isp, M/SEC                  728.1   1489.1

 MASS FRACTIONS

 *CO2            0.12576   H2O             0.04368   *NO             0.00232
 NO2             0.00006   *N2             0.61042   *OH             0.00008
 *O2             0.21767

  * THERMODYNAMIC PROPERTIES FITTED TO 20000.K

 NOTE. WEIGHT FRACTION OF FUEL IN TOTAL FUELS AND OF OXIDANT IN TOTAL OXIDANTS

           THEORETICAL ROCKET PERFORMANCE ASSUMING FROZEN COMPOSITION

 Pin =   338.0 PSIA
 CASE = _______________

             REACTANT                    WT FRACTION      ENERGY      TEMP
                                          (SEE NOTE)     KJ/KG-MOL      K  
 FUEL        paraffin                     1.0000000  -1860600.000    298.150
 OXIDANT     N2O                          1.0000000         0.000      0.000

 O/F=   24.50000  %FUEL=  3.921569  R,EQ.RATIO= 0.373001  PHI,EQ.RATIO= 0.373001

                 CHAMBER   THROAT     EXIT
 Pinf/P            1.0000   1.8211   28.020
[...]
 HCN             0.00003   *H2             0.03307   H2O             0.02883
 NH3             0.00025   *N2             0.42410   C(gr)           0.12378

  * THERMODYNAMIC PROPERTIES FITTED TO 20000.K

 NOTE. WEIGHT FRACTION OF FUEL IN TOTAL FUELS AND OF OXIDANT IN TOTAL OXIDANTS

           THEORETICAL ROCKET PERFORMANCE ASSUMING FROZEN COMPOSITION

 Pin =   205.7 PSIA
 CASE = _______________

             REACTANT                    WT FRACTION      ENERGY      TEMP
                                          (SEE NOTE)     KJ/KG-MOL      K  
 FUEL        paraffin                     1.0000000  -1860600.000    298.150
 OXIDANT     N2O                          1.0000000         0.000      0.000

 O/F=    2.00000  %FUEL= 33.333333  R,EQ.RATIO= 4.569263  PHI,EQ.RATIO= 4.569263

                 CHAMBER   THROAT     EXIT
 Pinf/P            1.0000   1.8156   27.694
 P, BAR            14.185   7.8132  0.51222
 T, K             1193.08  1052.19   566.58
 RHO, KG/CU M    3.0381 0 1.8974 0 2.3101-1
 H, KJ/KG         -619.11  -880.86 -1722.79
 U, KJ/KG        -1086.03 -1292.65 -1944.53
 G, KJ/KG        -12494.3 -11353.7 -7362.13
 S, KJ/(KG)(K)     9.9534   9.9534   9.9534

 M, (1/n)          21.245   21.245   21.245
 MW, MOL WT        17.431   17.431   17.431
 Cp, KJ/(KG)(K)    1.8811   1.8338   1.6201
 GAMMAs            1.2627   1.2713   1.3185
 SON VEL,M/SEC      767.8    723.5    540.7
 MACH NUMBER        0.000    1.000    2.748

 PERFORMANCE PARAMETERS

 Ae/At                      1.0000   4.0000
 CSTAR, M/SEC               1033.3   1033.3
 CF                         0.7002   1.4379
 Ivac, M/SEC                1292.7   1635.0
 Isp, M/SEC                  723.5   1485.7

 MASS FRACTIONS

 CH4             0.02152   *CO             0.32988   *CO2            0.03837
 HCN             0.00004   *H2             0.03285   H2O             0.02930
 NH3             0.00026   *N2             0.42409   C(gr)           0.12369

  * THERMODYNAMIC PROPERTIES FITTED TO 20000.K

 NOTE. WEIGHT FRACTION OF FUEL IN TOTAL FUELS AND OF OXIDANT IN TOTAL OXIDANTS

           THEORETICAL ROCKET PERFORMANCE ASSUMING FROZEN COMPOSITION

 Pin =   220.4 PSIA
 CASE = _______________

             REACTANT                    WT FRACTION      ENERGY      TEMP
                                          (SEE NOTE)     KJ/KG-MOL      K  
 FUEL        paraffin                     1.0000000  -1860600.000    298.150
 OXIDANT     N2O                          1.0000000         0.000      0.000

 O/F=    2.00000  %FUEL= 33.333333  R,EQ.RATIO= 4.569263  PHI,EQ.RATIO= 4.569263

                 CHAMBER   THROAT     EXIT
 Pinf/P            1.0000   1.8151   27.655
 P, BAR            15.199   8.3734  0.54959
 T, K             1197.15  1056.11   569.53
 RHO, KG/CU M    3.2487 0 2.0288 0 2.4693-1
 H, KJ/KG         -619.11  -881.31 -1725.36
 U, KJ/KG        -1086.94 -1294.03 -1947.92
 G, KJ/KG        -12502.4 -11364.7 -7378.70
 S, KJ/(KG)(K)     9.9264   9.9264   9.9264

 M, (1/n)          21.276   21.276   21.276
 MW, MOL WT        17.454   17.454   17.454
 Cp, KJ/(KG)(K)    1.8823   1.8350   1.6205
 GAMMAs            1.2620   1.2706   1.3178
 SON VEL,M/SEC      768.4    724.2    541.6
 MACH NUMBER        0.000    1.000    2.747

 PERFORMANCE PARAMETERS

 Ae/At                      1.0000   4.0000
 CSTAR, M/SEC               1034.5   1034.5
 CF                         0.7000   1.4378
 Ivac, M/SEC                1294.1   1637.1
 Isp, M/SEC                  724.2   1487.4

 MASS FRACTIONS

 CH4             0.02211   *CO             0.32887   *CO2            0.03862
 HCN             0.00004   *H2             0.03265   H2O             0.02974
 NH3             0.00027   *N2             0.42408   C(gr)           0.12361

  * THERMODYNAMIC PROPERTIES FITTED TO 20000.K

 NOTE. WEIGHT FRACTION OF FUEL IN TOTAL FUELS AND OF OXIDANT IN TOTAL OXIDANTS

           THEORETICAL ROCKET PERFORMANCE ASSUMING FROZEN COMPOSITION

 Pin =   235.1 PSIA
 CASE = _______________

             REACTANT                    WT FRACTION      ENERGY      TEMP
                                          (SEE NOTE)     KJ/KG-MOL      K  
 FUEL        paraffin                     1.0000000  -1860600.000    298.150
 OXIDANT     N2O                          1.0000000         0.000      0.000

 O/F=    2.00000  %FUEL= 33.333333  R,EQ.RATIO= 4.569263  PHI,EQ.RATIO= 4.569263

                 CHAMBER   THROAT     EXIT
 Pinf/P            1.0000   1.8147   27.618
 P, BAR            16.212   8.9336  0.58701
 T, K             1200.98  1059.81   572.32
 RHO, KG/CU M    3.4590 0 2.1600 0 2.6282-1
 H, KJ/KG         -619.11  -881.73 -1727.76
 U, KJ/KG        -1087.80 -1295.33 -1951.11
 G, KJ/KG        -12510.2 -11375.0 -7394.39
 S, KJ/(KG)(K)     9.9012   9.9012   9.9012

 M, (1/n)          21.305   21.305   21.305
 MW, MOL WT        17.476   17.476   17.476
 Cp, KJ/(KG)(K)    1.8835   1.8361   1.6210
 GAMMAs            1.2613   1.2699   1.3171
 SON VEL,M/SEC      768.9    724.7    542.4
 MACH NUMBER        0.000    1.000    2.745

 PERFORMANCE PARAMETERS

 Ae/At                      1.0000   4.0000
 CSTAR, M/SEC               1035.6   1035.6
 CF                         0.6998   1.4378
 Ivac, M/SEC                1295.4   1639.1
 Isp, M/SEC                  724.7   1489.1

 MASS FRACTIONS

 CH4             0.02268   *CO             0.32793   *CO2            0.03886
 HCN             0.00004   *H2             0.03246   H2O             0.03015
 NH3             0.00028   *N2             0.42407   C(gr)           0.12352

  * THERMODYNAMIC PROPERTIES FITTED TO 20000.K

 NOTE. WEIGHT FRACTION OF FUEL IN TOTAL FUELS AND OF OXIDANT IN TOTAL OXIDANTS

           THEORETICAL ROCKET PERFORMANCE ASSUMING FROZEN COMPOSITION

 Pin =   249.8 PSIA
 CASE = _______________

             REACTANT                    WT FRACTION      ENERGY      TEMP
                                          (SEE NOTE)     KJ/KG-MOL      K  
 FUEL        paraffin                     1.0000000  -1860600.000    298.150
 OXIDANT     N2O                          1.0000000         0.000      0.000

 O/F=    2.00000  %FUEL= 33.333333  R,EQ.RATIO= 4.569263  PHI,EQ.RATIO= 4.569263

                 CHAMBER   THROAT     EXIT
 Pinf/P            1.0000   1.8143   27.583
 P, BAR            17.225   9.4940  0.62449
 T, K             1204.60  1063.30   574.97
 RHO, KG/CU M    3.6689 0 2.2909 0 2.7867-1
 H, KJ/KG         -619.11  -882.12 -1730.02
 U, KJ/KG        -1088.61 -1296.55 -1954.12
 G, KJ/KG        -12517.6 -11384.9 -7409.30
 S, KJ/(KG)(K)     9.8775   9.8775   9.8775

 M, (1/n)          21.333   21.333   21.333
 MW, MOL WT        17.497   17.497   17.497
 Cp, KJ/(KG)(K)    1.8847   1.8372   1.6214
 GAMMAs            1.2607   1.2693   1.3165
 SON VEL,M/SEC      769.4    725.3    543.2
 MACH NUMBER        0.000    1.000    2.744

 PERFORMANCE PARAMETERS

 Ae/At                      1.0000   4.0000
 CSTAR, M/SEC               1036.7   1036.7
 CF                         0.6996   1.4378
 Ivac, M/SEC                1296.7   1640.9
 Isp, M/SEC                  725.3   1490.6

 MASS FRACTIONS

 CH4             0.02322   *CO             0.32705   *CO2            0.03908
 HCN             0.00004   *H2             0.03228   H2O             0.03053
 NH3             0.00029   *N2             0.42406   C(gr)           0.12343

  * THERMODYNAMIC PROPERTIES FITTED TO 20000.K

 NOTE. WEIGHT FRACTION OF FUEL IN TOTAL FUELS AND OF OXIDANT IN TOTAL OXIDANTS

           THEORETICAL ROCKET PERFORMANCE ASSUMING FROZEN COMPOSITION

 Pin =   264.5 PSIA
 CASE = _______________

             REACTANT                    WT FRACTION      ENERGY      TEMP
                                          (SEE NOTE)     KJ/KG-MOL      K  
 FUEL        paraffin                     1.0000000  -1860600.000    298.150
 OXIDANT     N2O                          1.0000000         0.000      0.000

 O/F=    2.00000  %FUEL= 33.333333  R,EQ.RATIO= 4.569263  PHI,EQ.RATIO= 4.569263

                 CHAMBER   THROAT     EXIT
 Pinf/P            1.0000   1.8140   27.550
 P, BAR            18.238   10.055  0.66202
 T, K             1208.04  1066.63   577.49
 RHO, KG/CU M    3.8784 0 2.4216 0 2.9449-1
 H, KJ/KG         -619.11  -882.49 -1732.16
 U, KJ/KG        -1089.37 -1297.70 -1956.96
 G, KJ/KG        -12524.7 -11394.4 -7423.50
 S, KJ/(KG)(K)     9.8553   9.8553   9.8553

 M, (1/n)          21.359   21.359   21.359
 MW, MOL WT        17.517   17.517   17.517
 Cp, KJ/(KG)(K)    1.8857   1.8382   1.6218
 GAMMAs            1.2601   1.2687   1.3158
 SON VEL,M/SEC      769.8    725.8    543.9
 MACH NUMBER        0.000    1.000    2.743

 PERFORMANCE PARAMETERS

 Ae/At                      1.0000   4.0000
 CSTAR, M/SEC               1037.7   1037.7
 CF                         0.6994   1.4378
 Ivac, M/SEC                1297.9   1642.7
 Isp, M/SEC                  725.8   1492.0

 MASS FRACTIONS

 CH4             0.02374   *CO             0.32621   *CO2            0.03929
 HCN             0.00004   *H2             0.03211   H2O             0.03090
 NH3             0.00030   *N2             0.42405   C(gr)           0.12334

  * THERMODYNAMIC PROPERTIES FITTED TO 20000.K

 NOTE. WEIGHT FRACTION OF FUEL IN TOTAL FUELS AND OF OXIDANT IN TOTAL OXIDANTS

           THEORETICAL ROCKET PERFORMANCE ASSUMING FROZEN COMPOSITION

 Pin =   279.2 PSIA
 CASE = _______________

             REACTANT                    WT FRACTION      ENERGY      TEMP
                                          (SEE NOTE)     KJ/KG-MOL      K  
 FUEL        paraffin                     1.0000000  -1860600.000    298.150
 OXIDANT     N2O                          1.0000000         0.000      0.000

 O/F=    2.00000  %FUEL= 33.333333  R,EQ.RATIO= 4.569263  PHI,EQ.RATIO= 4.569263

                 CHAMBER   THROAT     EXIT
 Pinf/P            1.0000   1.8136   27.518
 P, BAR            19.252   10.615  0.69960
 T, K             1211.32  1069.79   579.90
 RHO, KG/CU M    4.0876 0 2.5520 0 3.1028-1
 H, KJ/KG         -619.11  -882.84 -1734.19
 U, KJ/KG        -1090.09 -1298.79 -1959.66
 G, KJ/KG        -12531.5 -11403.4 -7437.07
 S, KJ/(KG)(K)     9.8342   9.8342   9.8342

 M, (1/n)          21.384   21.384   21.384
 MW, MOL WT        17.536   17.536   17.536
 Cp, KJ/(KG)(K)    1.8867   1.8392   1.6222
 GAMMAs            1.2596   1.2681   1.3152
 SON VEL,M/SEC      770.2    726.3    544.6
 MACH NUMBER        0.000    1.000    2.742

 PERFORMANCE PARAMETERS

 Ae/At                      1.0000   4.0000
 CSTAR, M/SEC               1038.7   1038.7
 CF                         0.6992   1.4377
 Ivac, M/SEC                1299.0   1644.4
 Isp, M/SEC                  726.3   1493.4

 MASS FRACTIONS

 CH4             0.02423   *CO             0.32542   *CO2            0.03949
 HCN             0.00004   *H2             0.03194   H2O             0.03124
 NH3             0.00031   *N2             0.42404   C(gr)           0.12326

  * THERMODYNAMIC PROPERTIES FITTED TO 20000.K

 NOTE. WEIGHT FRACTION OF FUEL IN TOTAL FUELS AND OF OXIDANT IN TOTAL OXIDANTS

           THEORETICAL ROCKET PERFORMANCE ASSUMING FROZEN COMPOSITION

 Pin =   293.9 PSIA
 CASE = _______________

             REACTANT                    WT FRACTION      ENERGY      TEMP
                                          (SEE NOTE)     KJ/KG-MOL      K  
 FUEL        paraffin                     1.0000000  -1860600.000    298.150
 OXIDANT     N2O                          1.0000000         0.000      0.000

 O/F=    2.00000  %FUEL= 33.333333  R,EQ.RATIO= 4.569263  PHI,EQ.RATIO= 4.569263

                 CHAMBER   THROAT     EXIT
 Pinf/P            1.0000   1.8133   27.488
 P, BAR            20.265   11.176  0.73723
 T, K             1214.44  1072.81   582.21
 RHO, KG/CU M    4.2965 0 2.6823 0 3.2604-1
 H, KJ/KG         -619.11  -883.17 -1736.11
 U, KJ/KG        -1090.77 -1299.82 -1962.23
 G, KJ/KG        -12538.0 -11412.1 -7450.06
 S, KJ/(KG)(K)     9.8143   9.8143   9.8143

 M, (1/n)          21.408   21.408   21.408
 MW, MOL WT        17.554   17.554   17.554
 Cp, KJ/(KG)(K)    1.8877   1.8401   1.6226
 GAMMAs            1.2590   1.2675   1.3147
 SON VEL,M/SEC      770.6    726.7    545.2
 MACH NUMBER        0.000    1.000    2.741

 PERFORMANCE PARAMETERS

 Ae/At                      1.0000   4.0000
 CSTAR, M/SEC               1039.6   1039.6
 CF                         0.6990   1.4377
 Ivac, M/SEC                1300.1   1645.9
 Isp, M/SEC                  726.7   1494.7

 MASS FRACTIONS

 CH4             0.02471   *CO             0.32467   *CO2            0.03968
 HCN             0.00004   *H2             0.03178   H2O             0.03157
 NH3             0.00032   *N2             0.42403   C(gr)           0.12317

  * THERMODYNAMIC PROPERTIES FITTED TO 20000.K

 NOTE. WEIGHT FRACTION OF FUEL IN TOTAL FUELS AND OF OXIDANT IN TOTAL OXIDANTS

           THEORETICAL ROCKET PERFORMANCE ASSUMING FROZEN COMPOSITION

 Pin =   308.6 PSIA
 CASE = _______________

             REACTANT                    WT FRACTION      ENERGY      TEMP
                                          (SEE NOTE)     KJ/KG-MOL      K  
 FUEL        paraffin                     1.0000000  -1860600.000    298.150
 OXIDANT     N2O                          1.0000000         0.000      0.000

 O/F=    2.00000  %FUEL= 33.333333  R,EQ.RATIO= 4.569263  PHI,EQ.RATIO= 4.569263

                 CHAMBER   THROAT     EXIT
 Pinf/P            1.0000   1.8129   27.459
 P, BAR            21.278   11.737  0.77491
 T, K             1217.43  1075.70   584.42
 RHO, KG/CU M    4.5051 0 2.8124 0 3.4178-1
 H, KJ/KG         -619.11  -883.48 -1737.95
 U, KJ/KG        -1091.42 -1300.81 -1964.68
 G, KJ/KG        -12544.3 -11420.4 -7462.52
 S, KJ/(KG)(K)     9.7954   9.7954   9.7954

 M, (1/n)          21.432   21.432   21.432
 MW, MOL WT        17.572   17.572   17.572
 Cp, KJ/(KG)(K)    1.8887   1.8410   1.6230
 GAMMAs            1.2585   1.2670   1.3141
 SON VEL,M/SEC      771.0    727.2    545.8
 MACH NUMBER        0.000    1.000    2.740

 PERFORMANCE PARAMETERS

 Ae/At                      1.0000   4.0000
 CSTAR, M/SEC               1040.5   1040.5
 CF                         0.6989   1.4377
 Ivac, M/SEC                1301.1   1647.5
 Isp, M/SEC                  727.2   1495.9

 MASS FRACTIONS

 CH4             0.02517   *CO             0.32396   *CO2            0.03986
 HCN             0.00005   *H2             0.03163   H2O             0.03188
 NH3             0.00033   *N2             0.42402   C(gr)           0.12308

  * THERMODYNAMIC PROPERTIES FITTED TO 20000.K

 NOTE. WEIGHT FRACTION OF FUEL IN TOTAL FUELS AND OF OXIDANT IN TOTAL OXIDANTS

           THEORETICAL ROCKET PERFORMANCE ASSUMING FROZEN COMPOSITION

 Pin =   323.3 PSIA
 CASE = _______________

             REACTANT                    WT FRACTION      ENERGY      TEMP
                                          (SEE NOTE)     KJ/KG-MOL      K  
 FUEL        paraffin                     1.0000000  -1860600.000    298.150
 OXIDANT     N2O                          1.0000000         0.000      0.000

 O/F=    2.00000  %FUEL= 33.333333  R,EQ.RATIO= 4.569263  PHI,EQ.RATIO= 4.569263

                 CHAMBER   THROAT     EXIT
 Pinf/P            1.0000   1.8126   27.431
 P, BAR            22.291   12.298  0.81263
 T, K             1220.30  1078.48   586.54
 RHO, KG/CU M    4.7135 0 2.9423 0 3.5749-1
 H, KJ/KG         -619.11  -883.78 -1739.70
 U, KJ/KG        -1092.04 -1301.74 -1967.02
 G, KJ/KG        -12550.4 -11428.4 -7474.51
 S, KJ/(KG)(K)     9.7773   9.7773   9.7773

 M, (1/n)          21.454   21.454   21.454
 MW, MOL WT        17.589   17.589   17.589
 Cp, KJ/(KG)(K)    1.8896   1.8419   1.6233
 GAMMAs            1.2580   1.2665   1.3136
 SON VEL,M/SEC      771.3    727.6    546.4
 MACH NUMBER        0.000    1.000    2.740

 PERFORMANCE PARAMETERS

 Ae/At                     1.00000   4.0000
 CSTAR, M/SEC               1041.3   1041.3
 CF                         0.6987   1.4377
 Ivac, M/SEC                1302.0   1648.9
 Isp, M/SEC                  727.6   1497.1

 MASS FRACTIONS

 CH4             0.02561   *CO             0.32327   *CO2            0.04003
 HCN             0.00005   *H2             0.03149   H2O             0.03218
 NH3             0.00034   *N2             0.42402   C(gr)           0.12300

  * THERMODYNAMIC PROPERTIES FITTED TO 20000.K

 NOTE. WEIGHT FRACTION OF FUEL IN TOTAL FUELS AND OF OXIDANT IN TOTAL OXIDANTS

           THEORETICAL ROCKET PERFORMANCE ASSUMING FROZEN COMPOSITION

 Pin =   338.0 PSIA
 CASE = _______________

             REACTANT                    WT FRACTION      ENERGY      TEMP
                                          (SEE NOTE)     KJ/KG-MOL      K  
 FUEL        paraffin                     1.0000000  -1860600.000    298.150
 OXIDANT     N2O                          1.0000000         0.000      0.000

 O/F=    2.00000  %FUEL= 33.333333  R,EQ.RATIO= 4.569263  PHI,EQ.RATIO= 4.569263

                 CHAMBER   THROAT     EXIT
 Pinf/P            1.0000   1.8123   27.405
 P, BAR            23.305   12.859  0.85039
 T, K             1223.05  1081.14   588.59
 RHO, KG/CU M    4.9216 0 3.0721 0 3.7318-1
 H, KJ/KG         -619.11  -884.07 -1741.38
 U, KJ/KG        -1092.63 -1302.64 -1969.26
 G, KJ/KG        -12556.2 -11436.1 -7486.05
 S, KJ/(KG)(K)     9.7601   9.7601   9.7601

 M, (1/n)          21.475   21.475   21.475
 MW, MOL WT        17.606   17.606   17.606
 Cp, KJ/(KG)(K)    1.8904   1.8427   1.6237
 GAMMAs            1.2576   1.2660   1.3131
 SON VEL,M/SEC      771.7    728.0    547.0
 MACH NUMBER        0.000    1.000    2.739

 PERFORMANCE PARAMETERS

 Ae/At                      1.0000   4.0000
 CSTAR, M/SEC               1042.1   1042.1
 CF                         0.6985   1.4377
 Ivac, M/SEC                1303.0   1650.3
 Isp, M/SEC                  728.0   1498.2

 MASS FRACTIONS

 CH4             0.02603   *CO             0.32262   *CO2            0.04019
 HCN             0.00005   *H2             0.03135   H2O             0.03247
 NH3             0.00035   *N2             0.42401   C(gr)           0.12291

  * THERMODYNAMIC PROPERTIES FITTED TO 20000.K

 NOTE. WEIGHT FRACTION OF FUEL IN TOTAL FUELS AND OF OXIDANT IN TOTAL OXIDANTS

           THEORETICAL ROCKET PERFORMANCE ASSUMING FROZEN COMPOSITION

 Pin =   352.7 PSIA
 CASE = _______________

             REACTANT                    WT FRACTION      ENERGY      TEMP
                                          (SEE NOTE)     KJ/KG-MOL      K  
 FUEL        paraffin                     1.0000000  -1860600.000    298.150
 OXIDANT     N2O                          1.0000000         0.000      0.000

 O/F=    2.00000  %FUEL= 33.333333  R,EQ.RATIO= 4.569263  PHI,EQ.RATIO= 4.569263

                 CHAMBER   THROAT     EXIT
 Pinf/P            1.0000   1.8120   27.379
 P, BAR            24.318   13.420  0.88819
 T, K             1225.70  1083.70   590.56
 RHO, KG/CU M    5.1294 0 3.2017 0 3.8884-1
 H, KJ/KG         -619.11  -884.34 -1742.99
 U, KJ/KG        -1093.19 -1303.50 -1971.41
 G, KJ/KG        -12561.9 -11443.5 -7497.18
 S, KJ/(KG)(K)     9.7436   9.7436   9.7436

 M, (1/n)          21.496   21.496   21.496
 MW, MOL WT        17.622   17.622   17.622
 Cp, KJ/(KG)(K)    1.8912   1.8435   1.6240
 GAMMAs            1.2571   1.2655   1.3126
 SON VEL,M/SEC      772.0    728.3    547.6
 MACH NUMBER        0.000    1.000    2.738

 PERFORMANCE PARAMETERS

 Ae/At                      1.0000   4.0000
 CSTAR, M/SEC               1042.9   1042.9
 CF                         0.6984   1.4376
 Ivac, M/SEC                1303.8   1651.6
 Isp, M/SEC                  728.3   1499.3

 MASS FRACTIONS

 CH4             0.02644   *CO             0.32199   *CO2            0.04035
 HCN             0.00005   *H2             0.03121   H2O             0.03274
 NH3             0.00036   *N2             0.42400   C(gr)           0.12283

  * THERMODYNAMIC PROPERTIES FITTED TO 20000.K

 NOTE. WEIGHT FRACTION OF FUEL IN TOTAL FUELS AND OF OXIDANT IN TOTAL OXIDANTS