         NASA-GLENN CHEMICAL EQUILIBRIUM PROGRAM CEA2, FEBRUARY 5, 2004
                   BY  BONNIE MCBRIDE AND SANFORD GORDON
      REFS: NASA RP-1311, PART I, 1994 AND NASA RP-1311, PART II, 1996

 *******************************************************************************

  
 ### CEA analysis performed on Tue 12-Oct-2021 14:54:57
  
 # Problem Type: "Rocket" (Infinite Area Combustor)
  
 prob case=_______________5388 ro frozen
  
 # Pressure (24 values):
 p,atm= 25, 26, 27, 28, 29, 30, 31, 32, 33, 34, 35, 36, 37, 38, 39, 40, 41, 42, 4
 3, 44, 45, 46, 47, 48
 # Supersonic Area Ratio (1 value):
 supar= 4
  
 # Oxidizer/Fuel Wt. ratio (30 values):
 o/f= 0.3, 0.5, 0.7, 0.9, 1.1, 1.3, 1.5, 1.7, 1.9, 2.1, 2.3, 2.5, 2.7, 2.9, 3.1, 
 3.3, 3.5, 3.7, 3.9, 4.1, 4.3, 4.5, 4.7, 4.9, 5.1, 5.
  
 # You selected the following fuels and oxidizers:
 reac
 fuel paraffin          wt%=100.0000
 oxid N2O               wt%=100.0000
  
 # You selected these options for output:
 # short version of output
 output short
 # Proportions of any products will be expressed as Mass Fractions.
 output massf
 # Heat will be expressed as siunits
 output siunits
  
 # Input prepared by this script:/var/www/sites/cearun.grc.nasa.gov/cgi-bin/CEARU
 N/prepareInputFile.cgi
  
 ### IMPORTANT:  The following line is the end of your CEA input file!
 end

           THEORETICAL ROCKET PERFORMANCE ASSUMING FROZEN COMPOSITION

 Pin =   367.4 PSIA
 CASE = _______________

             REACTANT                    WT FRACTION      ENERGY      TEMP
                                          (SEE NOTE)     KJ/KG-MOL      K  
 FUEL        paraffin                     1.0000000  -1860600.000    298.150
 OXIDANT     N2O                          1.0000000         0.000      0.000

 O/F=    0.30000  %FUEL= 76.923077  R,EQ.RATIO=30.461756  PHI,EQ.RATIO=30.461756

                 CHAMBER   THROAT     EXIT
 Pinf/P            1.0000   1.7314   20.784
 P, BAR            25.331   14.631   1.2188
 T, K              857.39   804.39   585.55
 RHO, KG/CU M    1.0130 1 6.2360 0 7.1361-1
 H, KJ/KG        -1428.71 -1561.71 -2063.46
 U, KJ/KG        -1678.78 -1796.33 -2234.25
 G, KJ/KG        -8227.66 -7940.41 -6706.82
 S, KJ/(KG)(K)     7.9299   7.9299   7.9299

 M, (1/n)          28.507   28.507   28.507
 MW, MOL WT        13.794   13.794   13.794
 Cp, KJ/(KG)(K)    2.5474   2.4711   2.0973
 GAMMAs            1.1293   1.1338   1.1615
 SON VEL,M/SEC      531.4    515.8    445.4
 MACH NUMBER        0.000    1.000    2.530

 PERFORMANCE PARAMETERS

 Ae/At                      1.0000   4.0000
 CSTAR, M/SEC                787.6    787.6
 CF                         0.6549   1.4306
 Ivac, M/SEC                 970.7   1278.3
 Isp, M/SEC                  515.8   1126.7

 MASS FRACTIONS

 CH4             0.29158   *CO             0.00434   *CO2            0.01333
 C2H6            0.00006   *H2             0.01349   H2O             0.08075
 NH3             0.00085   *N2             0.14618   C(gr)           0.44941

  * THERMODYNAMIC PROPERTIES FITTED TO 20000.K

 NOTE. WEIGHT FRACTION OF FUEL IN TOTAL FUELS AND OF OXIDANT IN TOTAL OXIDANTS

           THEORETICAL ROCKET PERFORMANCE ASSUMING FROZEN COMPOSITION

 Pin =   382.1 PSIA
 CASE = _______________

             REACTANT                    WT FRACTION      ENERGY      TEMP
                                          (SEE NOTE)     KJ/KG-MOL      K  
 FUEL        paraffin                     1.0000000  -1860600.000    298.150
 OXIDANT     N2O                          1.0000000         0.000      0.000

 O/F=    0.30000  %FUEL= 76.923077  R,EQ.RATIO=30.461756  PHI,EQ.RATIO=30.461756

                 CHAMBER   THROAT     EXIT
 Pinf/P            1.0000   1.7312   20.773
 P, BAR            26.345   15.217   1.2682
 T, K              858.60   805.61   586.79
 RHO, KG/CU M    1.0530 1 6.4827 0 7.4176-1
 H, KJ/KG        -1428.71 -1561.75 -2063.79
 U, KJ/KG        -1678.88 -1796.49 -2234.77
 G, KJ/KG        -8227.46 -7940.93 -6710.22
 S, KJ/(KG)(K)     7.9184   7.9184   7.9184

 M, (1/n)          28.535   28.535   28.535
 MW, MOL WT        13.807   13.807   13.807
 Cp, KJ/(KG)(K)    2.5486   2.4724   2.0989
 GAMMAs            1.1291   1.1336   1.1612
 SON VEL,M/SEC      531.5    515.8    445.6
 MACH NUMBER        0.000    1.000    2.529

 PERFORMANCE PARAMETERS

 Ae/At                      1.0000   4.0000
 CSTAR, M/SEC                787.8    787.8
 CF                         0.6548   1.4306
 Ivac, M/SEC                 970.9   1278.7
 Isp, M/SEC                  515.8   1127.0

 MASS FRACTIONS

 CH4             0.29213   *CO             0.00433   *CO2            0.01334
 C2H6            0.00006   *H2             0.01335   H2O             0.08075
 NH3             0.00086   *N2             0.14617   C(gr)           0.44900

  * THERMODYNAMIC PROPERTIES FITTED TO 20000.K

 NOTE. WEIGHT FRACTION OF FUEL IN TOTAL FUELS AND OF OXIDANT IN TOTAL OXIDANTS

           THEORETICAL ROCKET PERFORMANCE ASSUMING FROZEN COMPOSITION

 Pin =   396.8 PSIA
 CASE = _______________

             REACTANT                    WT FRACTION      ENERGY      TEMP
                                          (SEE NOTE)     KJ/KG-MOL      K  
 FUEL        paraffin                     1.0000000  -1860600.000    298.150
 OXIDANT     N2O                          1.0000000         0.000      0.000

 O/F=    0.30000  %FUEL= 76.923077  R,EQ.RATIO=30.461756  PHI,EQ.RATIO=30.461756

                 CHAMBER   THROAT     EXIT
 Pinf/P            1.0000   1.7311   20.762
 P, BAR            27.358   15.804   1.3177
 T, K              859.76   806.78   587.97
 RHO, KG/CU M    1.0931 1 6.7292 0 7.6989-1
 H, KJ/KG        -1428.71 -1561.79 -2064.11
 U, KJ/KG        -1678.98 -1796.64 -2235.26
 G, KJ/KG        -8227.21 -7941.39 -6713.44
 S, KJ/(KG)(K)     7.9074   7.9074   7.9074

 M, (1/n)          28.563   28.563   28.563
 MW, MOL WT        13.820   13.820   13.820
 Cp, KJ/(KG)(K)    2.5498   2.4737   2.1004
 GAMMAs            1.1289   1.1334   1.1609
 SON VEL,M/SEC      531.5    515.9    445.7
 MACH NUMBER        0.000    1.000    2.529

 PERFORMANCE PARAMETERS

 Ae/At                      1.0000   4.0000
 CSTAR, M/SEC                788.0    788.0
 CF                         0.6547   1.4305
 Ivac, M/SEC                 971.1   1279.1
 Isp, M/SEC                  515.9   1127.3

 MASS FRACTIONS

 CH4             0.29266   *CO             0.00432   *CO2            0.01334
 C2H6            0.00006   *H2             0.01322   H2O             0.08076
 NH3             0.00087   *N2             0.14616   C(gr)           0.44860

  * THERMODYNAMIC PROPERTIES FITTED TO 20000.K

 NOTE. WEIGHT FRACTION OF FUEL IN TOTAL FUELS AND OF OXIDANT IN TOTAL OXIDANTS

           THEORETICAL ROCKET PERFORMANCE ASSUMING FROZEN COMPOSITION

 Pin =   411.5 PSIA
 CASE = _______________

             REACTANT                    WT FRACTION      ENERGY      TEMP
                                          (SEE NOTE)     KJ/KG-MOL      K  
 FUEL        paraffin                     1.0000000  -1860600.000    298.150
 OXIDANT     N2O                          1.0000000         0.000      0.000

 O/F=    0.30000  %FUEL= 76.923077  R,EQ.RATIO=30.461756  PHI,EQ.RATIO=30.461756

                 CHAMBER   THROAT     EXIT
 Pinf/P            1.0000   1.7310   20.751
 P, BAR            28.371   16.390   1.3672
 T, K              860.88   807.91   589.10
 RHO, KG/CU M    1.1332 1 6.9758 0 7.9802-1
 H, KJ/KG        -1428.71 -1561.83 -2064.41
 U, KJ/KG        -1679.07 -1796.79 -2235.74
 G, KJ/KG        -8226.92 -7941.77 -6716.48
 S, KJ/(KG)(K)     7.8969   7.8969   7.8969

 M, (1/n)          28.590   28.590   28.590
 MW, MOL WT        13.832   13.832   13.832
 Cp, KJ/(KG)(K)    2.5509   2.4749   2.1019
 GAMMAs            1.1287   1.1332   1.1606
 SON VEL,M/SEC      531.6    516.0    445.9
 MACH NUMBER        0.000    1.000    2.529

 PERFORMANCE PARAMETERS

 Ae/At                      1.0000   4.0000
 CSTAR, M/SEC                788.2    788.2
 CF                         0.6546   1.4305
 Ivac, M/SEC                 971.3   1279.5
 Isp, M/SEC                  516.0   1127.6

 MASS FRACTIONS

 CH4             0.29317   *CO             0.00430   *CO2            0.01335
 C2H6            0.00007   *H2             0.01309   H2O             0.08076
 NH3             0.00088   *N2             0.14615   C(gr)           0.44823

  * THERMODYNAMIC PROPERTIES FITTED TO 20000.K

 NOTE. WEIGHT FRACTION OF FUEL IN TOTAL FUELS AND OF OXIDANT IN TOTAL OXIDANTS

           THEORETICAL ROCKET PERFORMANCE ASSUMING FROZEN COMPOSITION

 Pin =   426.2 PSIA
 CASE = _______________

             REACTANT                    WT FRACTION      ENERGY      TEMP
                                          (SEE NOTE)     KJ/KG-MOL      K  
 FUEL        paraffin                     1.0000000  -1860600.000    298.150
 OXIDANT     N2O                          1.0000000         0.000      0.000

 O/F=    0.30000  %FUEL= 76.923077  R,EQ.RATIO=30.461756  PHI,EQ.RATIO=30.461756

                 CHAMBER   THROAT     EXIT
 Pinf/P            1.0000   1.7308   20.741
 P, BAR            29.384   16.977   1.4167
 T, K              861.95   808.99   590.20
 RHO, KG/CU M    1.1733 1 7.2222 0 8.2613-1
 H, KJ/KG        -1428.71 -1561.86 -2064.70
 U, KJ/KG        -1679.16 -1796.93 -2236.19
 G, KJ/KG        -8226.59 -7942.09 -6719.37
 S, KJ/(KG)(K)     7.8867   7.8867   7.8867

 M, (1/n)          28.615   28.615   28.615
 MW, MOL WT        13.844   13.844   13.844
 Cp, KJ/(KG)(K)    2.5520   2.4760   2.1033
 GAMMAs            1.1285   1.1330   1.1603
 SON VEL,M/SEC      531.6    516.1    446.1
 MACH NUMBER        0.000    1.000    2.528

 PERFORMANCE PARAMETERS

 Ae/At                      1.0000   4.0000
 CSTAR, M/SEC                788.4    788.4
 CF                         0.6546   1.4305
 Ivac, M/SEC                 971.6   1279.9
 Isp, M/SEC                  516.1   1127.8

 MASS FRACTIONS

 CH4             0.29365   *CO             0.00429   *CO2            0.01336
 C2H6            0.00007   *H2             0.01296   H2O             0.08076
 NH3             0.00089   *N2             0.14615   C(gr)           0.44787

  * THERMODYNAMIC PROPERTIES FITTED TO 20000.K

 NOTE. WEIGHT FRACTION OF FUEL IN TOTAL FUELS AND OF OXIDANT IN TOTAL OXIDANTS

           THEORETICAL ROCKET PERFORMANCE ASSUMING FROZEN COMPOSITION

 Pin =   440.9 PSIA
 CASE = _______________

             REACTANT                    WT FRACTION      ENERGY      TEMP
                                          (SEE NOTE)     KJ/KG-MOL      K  
 FUEL        paraffin                     1.0000000  -1860600.000    298.150
 OXIDANT     N2O                          1.0000000         0.000      0.000

 O/F=    0.30000  %FUEL= 76.923077  R,EQ.RATIO=30.461756  PHI,EQ.RATIO=30.461756

                 CHAMBER   THROAT     EXIT
 Pinf/P            1.0000   1.7307   20.731
 P, BAR            30.398   17.563   1.4663
 T, K              862.98   810.03   591.25
 RHO, KG/CU M    1.2133 1 7.4686 0 8.5424-1
 H, KJ/KG        -1428.71 -1561.90 -2064.98
 U, KJ/KG        -1679.24 -1797.06 -2236.62
 G, KJ/KG        -8226.22 -7942.36 -6722.12
 S, KJ/(KG)(K)     7.8768   7.8768   7.8768

 M, (1/n)          28.640   28.640   28.640
 MW, MOL WT        13.855   13.855   13.855
 Cp, KJ/(KG)(K)    2.5531   2.4771   2.1047
 GAMMAs            1.1283   1.1328   1.1600
 SON VEL,M/SEC      531.7    516.1    446.2
 MACH NUMBER        0.000    1.000    2.528

 PERFORMANCE PARAMETERS

 Ae/At                      1.0000   4.0000
 CSTAR, M/SEC                788.6    788.6
 CF                         0.6545   1.4305
 Ivac, M/SEC                 971.8   1280.2
 Isp, M/SEC                  516.1   1128.1

 MASS FRACTIONS

 CH4             0.29412   *CO             0.00428   *CO2            0.01336
 C2H6            0.00007   *H2             0.01284   H2O             0.08076
 NH3             0.00090   *N2             0.14614   C(gr)           0.44752

  * THERMODYNAMIC PROPERTIES FITTED TO 20000.K

 NOTE. WEIGHT FRACTION OF FUEL IN TOTAL FUELS AND OF OXIDANT IN TOTAL OXIDANTS

           THEORETICAL ROCKET PERFORMANCE ASSUMING FROZEN COMPOSITION

 Pin =   455.6 PSIA
 CASE = _______________

             REACTANT                    WT FRACTION      ENERGY      TEMP
                                          (SEE NOTE)     KJ/KG-MOL      K  
 FUEL        paraffin                     1.0000000  -1860600.000    298.150
 OXIDANT     N2O                          1.0000000         0.000      0.000

 O/F=    0.30000  %FUEL= 76.923077  R,EQ.RATIO=30.461756  PHI,EQ.RATIO=30.461756

                 CHAMBER   THROAT     EXIT
 Pinf/P            1.0000   1.7306   20.722
 P, BAR            31.411   18.150   1.5158
 T, K              863.97   811.03   592.26
 RHO, KG/CU M    1.2534 1 7.7150 0 8.8233-1
 H, KJ/KG        -1428.71 -1561.93 -2065.24
 U, KJ/KG        -1679.32 -1797.19 -2237.04
 G, KJ/KG        -8225.83 -7942.57 -6724.73
 S, KJ/(KG)(K)     7.8673   7.8673   7.8673

 M, (1/n)          28.664   28.664   28.664
 MW, MOL WT        13.866   13.866   13.866
 Cp, KJ/(KG)(K)    2.5541   2.4782   2.1060
 GAMMAs            1.1281   1.1326   1.1597
 SON VEL,M/SEC      531.7    516.2    446.4
 MACH NUMBER        0.000    1.000    2.528

 PERFORMANCE PARAMETERS

 Ae/At                     1.00000   4.0000
 CSTAR, M/SEC                788.8    788.8
 CF                         0.6544   1.4305
 Ivac, M/SEC                 971.9   1280.6
 Isp, M/SEC                  516.2   1128.3

 MASS FRACTIONS

 CH4             0.29457   *CO             0.00427   *CO2            0.01337
 C2H6            0.00007   *H2             0.01273   H2O             0.08077
 NH3             0.00091   *N2             0.14613   C(gr)           0.44718

  * THERMODYNAMIC PROPERTIES FITTED TO 20000.K

 NOTE. WEIGHT FRACTION OF FUEL IN TOTAL FUELS AND OF OXIDANT IN TOTAL OXIDANTS

           THEORETICAL ROCKET PERFORMANCE ASSUMING FROZEN COMPOSITION

 Pin =   470.3 PSIA
 CASE = _______________

             REACTANT                    WT FRACTION      ENERGY      TEMP
                                          (SEE NOTE)     KJ/KG-MOL      K  
 FUEL        paraffin                     1.0000000  -1860600.000    298.150
 OXIDANT     N2O                          1.0000000         0.000      0.000

 O/F=    0.30000  %FUEL= 76.923077  R,EQ.RATIO=30.461756  PHI,EQ.RATIO=30.461756

                 CHAMBER   THROAT     EXIT
 Pinf/P            1.0000   1.7305   20.713
 P, BAR            32.424   18.737   1.5654
 T, K              864.93   812.00   593.24
 RHO, KG/CU M    1.2934 1 7.9613 0 9.1042-1
 H, KJ/KG        -1428.71 -1561.96 -2065.50
 U, KJ/KG        -1679.40 -1797.31 -2237.44
 G, KJ/KG        -8225.40 -7942.74 -6727.22
 S, KJ/(KG)(K)     7.8581   7.8581   7.8581

 M, (1/n)          28.687   28.687   28.687
 MW, MOL WT        13.876   13.876   13.876
 Cp, KJ/(KG)(K)    2.5551   2.4792   2.1073
 GAMMAs            1.1279   1.1324   1.1595
 SON VEL,M/SEC      531.8    516.2    446.5
 MACH NUMBER        0.000    1.000    2.527

 PERFORMANCE PARAMETERS

 Ae/At                      1.0000   4.0000
 CSTAR, M/SEC                788.9    788.9
 CF                         0.6544   1.4305
 Ivac, M/SEC                 972.1   1280.9
 Isp, M/SEC                  516.2   1128.5

 MASS FRACTIONS

 CH4             0.29500   *CO             0.00426   *CO2            0.01338
 C2H6            0.00007   *H2             0.01262   H2O             0.08077
 NH3             0.00092   *N2             0.14612   C(gr)           0.44686

  * THERMODYNAMIC PROPERTIES FITTED TO 20000.K

 NOTE. WEIGHT FRACTION OF FUEL IN TOTAL FUELS AND OF OXIDANT IN TOTAL OXIDANTS

           THEORETICAL ROCKET PERFORMANCE ASSUMING FROZEN COMPOSITION

 Pin =   485.0 PSIA
 CASE = _______________

             REACTANT                    WT FRACTION      ENERGY      TEMP
                                          (SEE NOTE)     KJ/KG-MOL      K  
 FUEL        paraffin                     1.0000000  -1860600.000    298.150
 OXIDANT     N2O                          1.0000000         0.000      0.000

 O/F=    0.30000  %FUEL= 76.923077  R,EQ.RATIO=30.461756  PHI,EQ.RATIO=30.461756

                 CHAMBER   THROAT     EXIT
 Pinf/P            1.0000   1.7304   20.704
 P, BAR            33.437   19.324   1.6150
 T, K              865.86   812.94   594.18
 RHO, KG/CU M    1.3334 1 8.2075 0 9.3850-1
 H, KJ/KG        -1428.71 -1561.99 -2065.74
 U, KJ/KG        -1679.47 -1797.43 -2237.83
 G, KJ/KG        -8224.96 -7942.86 -6729.59
 S, KJ/(KG)(K)     7.8492   7.8492   7.8492

 M, (1/n)          28.709   28.709   28.709
 MW, MOL WT        13.887   13.887   13.887
 Cp, KJ/(KG)(K)    2.5561   2.4802   2.1085
 GAMMAs            1.1278   1.1322   1.1592
 SON VEL,M/SEC      531.8    516.3    446.6
 MACH NUMBER        0.000    1.000    2.527

 PERFORMANCE PARAMETERS

 Ae/At                      1.0000   4.0000
 CSTAR, M/SEC                789.1    789.1
 CF                         0.6543   1.4305
 Ivac, M/SEC                 972.3   1281.2
 Isp, M/SEC                  516.3   1128.7

 MASS FRACTIONS

 CH4             0.29542   *CO             0.00424   *CO2            0.01338
 C2H6            0.00007   *H2             0.01251   H2O             0.08077
 NH3             0.00093   *N2             0.14611   C(gr)           0.44655

  * THERMODYNAMIC PROPERTIES FITTED TO 20000.K

 NOTE. WEIGHT FRACTION OF FUEL IN TOTAL FUELS AND OF OXIDANT IN TOTAL OXIDANTS

           THEORETICAL ROCKET PERFORMANCE ASSUMING FROZEN COMPOSITION

 Pin =   499.7 PSIA
 CASE = _______________

             REACTANT                    WT FRACTION      ENERGY      TEMP
                                          (SEE NOTE)     KJ/KG-MOL      K  
 FUEL        paraffin                     1.0000000  -1860600.000    298.150
 OXIDANT     N2O                          1.0000000         0.000      0.000

 O/F=    0.30000  %FUEL= 76.923077  R,EQ.RATIO=30.461756  PHI,EQ.RATIO=30.461756

                 CHAMBER   THROAT     EXIT
 Pinf/P            1.0000   1.7303   20.694
 P, BAR            34.450   19.910   1.6647
 T, K              866.75   813.84   595.10
 RHO, KG/CU M    1.3734 1 8.4537 0 9.6662-1
 H, KJ/KG        -1428.71 -1562.02 -2065.97
 U, KJ/KG        -1679.54 -1797.54 -2238.19
 G, KJ/KG        -8224.49 -7942.95 -6731.89
 S, KJ/(KG)(K)     7.8405   7.8405   7.8405

 M, (1/n)          28.730   28.730   28.730
 MW, MOL WT        13.896   13.896   13.896
 Cp, KJ/(KG)(K)    2.5570   2.4812   2.1097
 GAMMAs            1.1276   1.1320   1.1590
 SON VEL,M/SEC      531.8    516.4    446.8
 MACH NUMBER        0.000    1.000    2.527

 PERFORMANCE PARAMETERS

 Ae/At                      1.0000   4.0000
 CSTAR, M/SEC                789.2    789.2
 CF                         0.6542   1.4304
 Ivac, M/SEC                 972.5   1281.5
 Isp, M/SEC                  516.3   1128.9

 MASS FRACTIONS

 CH4             0.29582   *CO             0.00423   *CO2            0.01339
 C2H6            0.00008   *H2             0.01241   H2O             0.08078
 NH3             0.00094   *N2             0.14610   C(gr)           0.44625

  * THERMODYNAMIC PROPERTIES FITTED TO 20000.K

 NOTE. WEIGHT FRACTION OF FUEL IN TOTAL FUELS AND OF OXIDANT IN TOTAL OXIDANTS

           THEORETICAL ROCKET PERFORMANCE ASSUMING FROZEN COMPOSITION

 Pin =   514.4 PSIA
 CASE = _______________

             REACTANT                    WT FRACTION      ENERGY      TEMP
                                          (SEE NOTE)     KJ/KG-MOL      K  
 FUEL        paraffin                     1.0000000  -1860600.000    298.150
 OXIDANT     N2O                          1.0000000         0.000      0.000

 O/F=    0.30000  %FUEL= 76.923077  R,EQ.RATIO=30.461756  PHI,EQ.RATIO=30.461756

                 CHAMBER   THROAT     EXIT
 Pinf/P            1.0000   1.7302   20.686
 P, BAR            35.464   20.497   1.7144
 T, K              867.62   814.71   595.99
 RHO, KG/CU M    1.4134 1 8.6998 0 9.9469-1
 H, KJ/KG        -1428.71 -1562.04 -2066.20
 U, KJ/KG        -1679.61 -1797.65 -2238.55
 G, KJ/KG        -8224.00 -7942.99 -6734.05
 S, KJ/(KG)(K)     7.8321   7.8321   7.8321

 M, (1/n)          28.751   28.751   28.751
 MW, MOL WT        13.906   13.906   13.906
 Cp, KJ/(KG)(K)    2.5579   2.4821   2.1108
 GAMMAs            1.1275   1.1319   1.1588
 SON VEL,M/SEC      531.9    516.4    446.9
 MACH NUMBER        0.000    1.000    2.527

 PERFORMANCE PARAMETERS

 Ae/At                      1.0000   4.0000
 CSTAR, M/SEC                789.4    789.4
 CF                         0.6542   1.4304
 Ivac, M/SEC                 972.6   1281.8
 Isp, M/SEC                  516.4   1129.1

 MASS FRACTIONS

 CH4             0.29621   *CO             0.00422   *CO2            0.01339
 C2H6            0.00008   *H2             0.01230   H2O             0.08078
 NH3             0.00095   *N2             0.14610   C(gr)           0.44596

  * THERMODYNAMIC PROPERTIES FITTED TO 20000.K

 NOTE. WEIGHT FRACTION OF FUEL IN TOTAL FUELS AND OF OXIDANT IN TOTAL OXIDANTS

           THEORETICAL ROCKET PERFORMANCE ASSUMING FROZEN COMPOSITION

 Pin =   529.1 PSIA
 CASE = _______________

             REACTANT                    WT FRACTION      ENERGY      TEMP
                                          (SEE NOTE)     KJ/KG-MOL      K  
 FUEL        paraffin                     1.0000000  -1860600.000    298.150
 OXIDANT     N2O                          1.0000000         0.000      0.000

 O/F=    0.30000  %FUEL= 76.923077  R,EQ.RATIO=30.461756  PHI,EQ.RATIO=30.461756

                 CHAMBER   THROAT     EXIT
 Pinf/P            1.0000   1.7301   20.678
 P, BAR            36.477   21.084   1.7640
 T, K              868.45   815.56   596.84
 RHO, KG/CU M    1.4534 1 8.9459 0 1.0227 0
 H, KJ/KG        -1428.71 -1562.07 -2066.42
 U, KJ/KG        -1679.68 -1797.75 -2238.89
 G, KJ/KG        -8223.49 -7943.01 -6736.13
 S, KJ/(KG)(K)     7.8240   7.8240   7.8240

 M, (1/n)          28.772   28.772   28.772
 MW, MOL WT        13.915   13.915   13.915
 Cp, KJ/(KG)(K)    2.5587   2.4830   2.1119
 GAMMAs            1.1273   1.1317   1.1585
 SON VEL,M/SEC      531.9    516.5    447.0
 MACH NUMBER        0.000    1.000    2.526

 PERFORMANCE PARAMETERS

 Ae/At                      1.0000   4.0000
 CSTAR, M/SEC                789.5    789.5
 CF                         0.6541   1.4304
 Ivac, M/SEC                 972.8   1282.1
 Isp, M/SEC                  516.5   1129.3

 MASS FRACTIONS

 CH4             0.29659   *CO             0.00421   *CO2            0.01340
 C2H6            0.00008   *H2             0.01221   H2O             0.08078
 NH3             0.00096   *N2             0.14609   C(gr)           0.44568

  * THERMODYNAMIC PROPERTIES FITTED TO 20000.K

 NOTE. WEIGHT FRACTION OF FUEL IN TOTAL FUELS AND OF OXIDANT IN TOTAL OXIDANTS

           THEORETICAL ROCKET PERFORMANCE ASSUMING FROZEN COMPOSITION

 Pin =   543.8 PSIA
 CASE = _______________

             REACTANT                    WT FRACTION      ENERGY      TEMP
                                          (SEE NOTE)     KJ/KG-MOL      K  
 FUEL        paraffin                     1.0000000  -1860600.000    298.150
 OXIDANT     N2O                          1.0000000         0.000      0.000

 O/F=    0.30000  %FUEL= 76.923077  R,EQ.RATIO=30.461756  PHI,EQ.RATIO=30.461756

                 CHAMBER   THROAT     EXIT
 Pinf/P            1.0000   1.7300   20.671
 P, BAR            37.490   21.671   1.8137
 T, K              869.27   816.38   597.68
 RHO, KG/CU M    1.4934 1 9.1919 0 1.0508 0
 H, KJ/KG        -1428.71 -1562.09 -2066.63
 U, KJ/KG        -1679.74 -1797.85 -2239.23
 G, KJ/KG        -8222.96 -7942.99 -6738.11
 S, KJ/(KG)(K)     7.8161   7.8161   7.8161

 M, (1/n)          28.791   28.791   28.791
 MW, MOL WT        13.924   13.924   13.924
 Cp, KJ/(KG)(K)    2.5596   2.4839   2.1130
 GAMMAs            1.1272   1.1316   1.1583
 SON VEL,M/SEC      531.9    516.5    447.1
 MACH NUMBER        0.000    1.000    2.526

 PERFORMANCE PARAMETERS

 Ae/At                      1.0000   4.0000
 CSTAR, M/SEC                789.7    789.7
 CF                         0.6541   1.4304
 Ivac, M/SEC                 973.0   1282.3
 Isp, M/SEC                  516.5   1129.5

 MASS FRACTIONS

 CH4             0.29696   *CO             0.00420   *CO2            0.01340
 C2H6            0.00008   *H2             0.01211   H2O             0.08079
 NH3             0.00097   *N2             0.14608   C(gr)           0.44541

  * THERMODYNAMIC PROPERTIES FITTED TO 20000.K

 NOTE. WEIGHT FRACTION OF FUEL IN TOTAL FUELS AND OF OXIDANT IN TOTAL OXIDANTS

           THEORETICAL ROCKET PERFORMANCE ASSUMING FROZEN COMPOSITION

 Pin =   558.4 PSIA
 CASE = _______________

             REACTANT                    WT FRACTION      ENERGY      TEMP
                                          (SEE NOTE)     KJ/KG-MOL      K  
 FUEL        paraffin                     1.0000000  -1860600.000    298.150
 OXIDANT     N2O                          1.0000000         0.000      0.000

 O/F=    0.30000  %FUEL= 76.923077  R,EQ.RATIO=30.461756  PHI,EQ.RATIO=30.461756

                 CHAMBER   THROAT     EXIT
 Pinf/P            1.0000   1.7299   20.663
 P, BAR            38.504   22.258   1.8634
 T, K              870.05   817.18   598.48
 RHO, KG/CU M    1.5334 1 9.4379 0 1.0788 0
 H, KJ/KG        -1428.71 -1562.12 -2066.83
 U, KJ/KG        -1679.80 -1797.95 -2239.55
 G, KJ/KG        -8222.42 -7942.94 -6740.02
 S, KJ/(KG)(K)     7.8084   7.8084   7.8084

 M, (1/n)          28.810   28.810   28.810
 MW, MOL WT        13.933   13.933   13.933
 Cp, KJ/(KG)(K)    2.5604   2.4848   2.1141
 GAMMAs            1.1270   1.1314   1.1581
 SON VEL,M/SEC      532.0    516.5    447.2
 MACH NUMBER        0.000    1.000    2.526

 PERFORMANCE PARAMETERS

 Ae/At                      1.0000   4.0000
 CSTAR, M/SEC                789.8    789.8
 CF                         0.6540   1.4304
 Ivac, M/SEC                 973.1   1282.6
 Isp, M/SEC                  516.5   1129.7

 MASS FRACTIONS

 CH4             0.29731   *CO             0.00419   *CO2            0.01341
 C2H6            0.00008   *H2             0.01202   H2O             0.08079
 NH3             0.00098   *N2             0.14607   C(gr)           0.44515

  * THERMODYNAMIC PROPERTIES FITTED TO 20000.K

 NOTE. WEIGHT FRACTION OF FUEL IN TOTAL FUELS AND OF OXIDANT IN TOTAL OXIDANTS

           THEORETICAL ROCKET PERFORMANCE ASSUMING FROZEN COMPOSITION

 Pin =   573.1 PSIA
 CASE = _______________

             REACTANT                    WT FRACTION      ENERGY      TEMP
                                          (SEE NOTE)     KJ/KG-MOL      K  
 FUEL        paraffin                     1.0000000  -1860600.000    298.150
 OXIDANT     N2O                          1.0000000         0.000      0.000

 O/F=    0.30000  %FUEL= 76.923077  R,EQ.RATIO=30.461756  PHI,EQ.RATIO=30.461756

                 CHAMBER   THROAT     EXIT
 Pinf/P            1.0000   1.7298   20.656
 P, BAR            39.517   22.845   1.9131
 T, K              870.82   817.95   599.27
 RHO, KG/CU M    1.5734 1 9.6839 0 1.1069 0
 H, KJ/KG        -1428.71 -1562.14 -2067.03
 U, KJ/KG        -1679.86 -1798.04 -2239.86
 G, KJ/KG        -8221.87 -7942.87 -6741.84
 S, KJ/(KG)(K)     7.8009   7.8009   7.8009

 M, (1/n)          28.829   28.829   28.829
 MW, MOL WT        13.941   13.941   13.941
 Cp, KJ/(KG)(K)    2.5611   2.4856   2.1151
 GAMMAs            1.1269   1.1313   1.1579
 SON VEL,M/SEC      532.0    516.6    447.3
 MACH NUMBER        0.000    1.000    2.526

 PERFORMANCE PARAMETERS

 Ae/At                      1.0000   4.0000
 CSTAR, M/SEC                789.9    789.9
 CF                         0.6540   1.4304
 Ivac, M/SEC                 973.2   1282.9
 Isp, M/SEC                  516.6   1129.9

 MASS FRACTIONS

 CH4             0.29765   *CO             0.00417   *CO2            0.01341
 C2H6            0.00008   *H2             0.01193   H2O             0.08079
 NH3             0.00099   *N2             0.14607   C(gr)           0.44489

  * THERMODYNAMIC PROPERTIES FITTED TO 20000.K

 NOTE. WEIGHT FRACTION OF FUEL IN TOTAL FUELS AND OF OXIDANT IN TOTAL OXIDANTS

           THEORETICAL ROCKET PERFORMANCE ASSUMING FROZEN COMPOSITION

 Pin =   587.8 PSIA
 CASE = _______________

             REACTANT                    WT FRACTION      ENERGY      TEMP
                                          (SEE NOTE)     KJ/KG-MOL      K  
 FUEL        paraffin                     1.0000000  -1860600.000    298.150
 OXIDANT     N2O                          1.0000000         0.000      0.000

 O/F=    0.30000  %FUEL= 76.923077  R,EQ.RATIO=30.461756  PHI,EQ.RATIO=30.461756

                 CHAMBER   THROAT     EXIT
 Pinf/P            1.0000   1.7297   20.649
 P, BAR            40.530   23.432   1.9628
 T, K              871.56   818.70   600.03
 RHO, KG/CU M    1.6134 1 9.9298 0 1.1349 0
 H, KJ/KG        -1428.71 -1562.16 -2067.22
 U, KJ/KG        -1679.92 -1798.13 -2240.16
 G, KJ/KG        -8221.30 -7942.77 -6743.59
 S, KJ/(KG)(K)     7.7936   7.7936   7.7936

 M, (1/n)          28.847   28.847   28.847
 MW, MOL WT        13.950   13.950   13.950
 Cp, KJ/(KG)(K)    2.5619   2.4864   2.1161
 GAMMAs            1.1268   1.1311   1.1577
 SON VEL,M/SEC      532.0    516.6    447.5
 MACH NUMBER        0.000    1.000    2.526

 PERFORMANCE PARAMETERS

 Ae/At                      1.0000   4.0000
 CSTAR, M/SEC                790.0    790.0
 CF                         0.6539   1.4304
 Ivac, M/SEC                 973.4   1283.1
 Isp, M/SEC                  516.6   1130.1

 MASS FRACTIONS

 CH4             0.29799   *CO             0.00416   *CO2            0.01342
 C2H6            0.00009   *H2             0.01185   H2O             0.08080
 NH3             0.00100   *N2             0.14606   C(gr)           0.44464

  * THERMODYNAMIC PROPERTIES FITTED TO 20000.K

 NOTE. WEIGHT FRACTION OF FUEL IN TOTAL FUELS AND OF OXIDANT IN TOTAL OXIDANTS

           THEORETICAL ROCKET PERFORMANCE ASSUMING FROZEN COMPOSITION

 Pin =   602.5 PSIA
 CASE = _______________

             REACTANT                    WT FRACTION      ENERGY      TEMP
                                          (SEE NOTE)     KJ/KG-MOL      K  
 FUEL        paraffin                     1.0000000  -1860600.000    298.150
 OXIDANT     N2O                          1.0000000         0.000      0.000

 O/F=    0.30000  %FUEL= 76.923077  R,EQ.RATIO=30.461756  PHI,EQ.RATIO=30.461756

                 CHAMBER   THROAT     EXIT
 Pinf/P            1.0000   1.7296   20.643
 P, BAR            41.543   24.019   2.0125
 T, K              872.28   819.43   600.77
 RHO, KG/CU M    1.6534 1 1.0176 1 1.1629 0
 H, KJ/KG        -1428.71 -1562.18 -2067.40
 U, KJ/KG        -1679.97 -1798.22 -2240.46
 G, KJ/KG        -8220.72 -7942.64 -6745.27
 S, KJ/(KG)(K)     7.7865   7.7865   7.7865

 M, (1/n)          28.865   28.865   28.865
 MW, MOL WT        13.958   13.958   13.958
 Cp, KJ/(KG)(K)    2.5627   2.4872   2.1170
 GAMMAs            1.1266   1.1310   1.1575
 SON VEL,M/SEC      532.1    516.7    447.6
 MACH NUMBER        0.000    1.000    2.525

 PERFORMANCE PARAMETERS

 Ae/At                     1.00000   4.0000
 CSTAR, M/SEC                790.2    790.2
 CF                         0.6539   1.4303
 Ivac, M/SEC                 973.5   1283.3
 Isp, M/SEC                  516.7   1130.2

 MASS FRACTIONS

 CH4             0.29831   *CO             0.00415   *CO2            0.01342
 C2H6            0.00009   *H2             0.01176   H2O             0.08080
 NH3             0.00101   *N2             0.14605   C(gr)           0.44440

  * THERMODYNAMIC PROPERTIES FITTED TO 20000.K

 NOTE. WEIGHT FRACTION OF FUEL IN TOTAL FUELS AND OF OXIDANT IN TOTAL OXIDANTS

           THEORETICAL ROCKET PERFORMANCE ASSUMING FROZEN COMPOSITION

 Pin =   617.2 PSIA
 CASE = _______________

             REACTANT                    WT FRACTION      ENERGY      TEMP
                                          (SEE NOTE)     KJ/KG-MOL      K  
 FUEL        paraffin                     1.0000000  -1860600.000    298.150
 OXIDANT     N2O                          1.0000000         0.000      0.000

 O/F=    0.30000  %FUEL= 76.923077  R,EQ.RATIO=30.461756  PHI,EQ.RATIO=30.461756

                 CHAMBER   THROAT     EXIT
 Pinf/P            1.0000   1.7296   20.636
 P, BAR            42.556   24.606   2.0622
 T, K              872.99   820.14   601.49
 RHO, KG/CU M    1.6933 1 1.0422 1 1.1910 0
 H, KJ/KG        -1428.71 -1562.20 -2067.58
 U, KJ/KG        -1680.02 -1798.31 -2240.74
 G, KJ/KG        -8220.14 -7942.50 -6746.89
 S, KJ/(KG)(K)     7.7795   7.7795   7.7795

 M, (1/n)          28.882   28.882   28.882
 MW, MOL WT        13.965   13.965   13.965
 Cp, KJ/(KG)(K)    2.5634   2.4879   2.1180
 GAMMAs            1.1265   1.1309   1.1573
 SON VEL,M/SEC      532.1    516.7    447.7
 MACH NUMBER        0.000    1.000    2.525

 PERFORMANCE PARAMETERS

 Ae/At                     1.00000   4.0000
 CSTAR, M/SEC                790.3    790.3
 CF                         0.6538   1.4303
 Ivac, M/SEC                 973.6   1283.6
 Isp, M/SEC                  516.7   1130.4

 MASS FRACTIONS

 CH4             0.29863   *CO             0.00414   *CO2            0.01343
 C2H6            0.00009   *H2             0.01168   H2O             0.08080
 NH3             0.00101   *N2             0.14605   C(gr)           0.44417

  * THERMODYNAMIC PROPERTIES FITTED TO 20000.K

 NOTE. WEIGHT FRACTION OF FUEL IN TOTAL FUELS AND OF OXIDANT IN TOTAL OXIDANTS

           THEORETICAL ROCKET PERFORMANCE ASSUMING FROZEN COMPOSITION

 Pin =   631.9 PSIA
 CASE = _______________

             REACTANT                    WT FRACTION      ENERGY      TEMP
                                          (SEE NOTE)     KJ/KG-MOL      K  
 FUEL        paraffin                     1.0000000  -1860600.000    298.150
 OXIDANT     N2O                          1.0000000         0.000      0.000

 O/F=    0.30000  %FUEL= 76.923077  R,EQ.RATIO=30.461756  PHI,EQ.RATIO=30.461756

                 CHAMBER   THROAT     EXIT
 Pinf/P            1.0000   1.7295   20.630
 P, BAR            43.570   25.193   2.1120
 T, K              873.67   820.83   602.19
 RHO, KG/CU M    1.7333 1 1.0667 1 1.2190 0
 H, KJ/KG        -1428.71 -1562.22 -2067.76
 U, KJ/KG        -1680.08 -1798.39 -2241.02
 G, KJ/KG        -8219.54 -7942.34 -6748.45
 S, KJ/(KG)(K)     7.7728   7.7728   7.7728

 M, (1/n)          28.898   28.898   28.898
 MW, MOL WT        13.973   13.973   13.973
 Cp, KJ/(KG)(K)    2.5641   2.4887   2.1189
 GAMMAs            1.1264   1.1307   1.1571
 SON VEL,M/SEC      532.1    516.8    447.8
 MACH NUMBER        0.000    1.000    2.525

 PERFORMANCE PARAMETERS

 Ae/At                      1.0000   4.0000
 CSTAR, M/SEC                790.4    790.4
 CF                         0.6538   1.4303
 Ivac, M/SEC                 973.8   1283.8
 Isp, M/SEC                  516.8   1130.5

 MASS FRACTIONS

 CH4             0.29894   *CO             0.00413   *CO2            0.01343
 C2H6            0.00009   *H2             0.01160   H2O             0.08081
 NH3             0.00102   *N2             0.14604   C(gr)           0.44394

  * THERMODYNAMIC PROPERTIES FITTED TO 20000.K

 NOTE. WEIGHT FRACTION OF FUEL IN TOTAL FUELS AND OF OXIDANT IN TOTAL OXIDANTS

           THEORETICAL ROCKET PERFORMANCE ASSUMING FROZEN COMPOSITION

 Pin =   646.6 PSIA
 CASE = _______________

             REACTANT                    WT FRACTION      ENERGY      TEMP
                                          (SEE NOTE)     KJ/KG-MOL      K  
 FUEL        paraffin                     1.0000000  -1860600.000    298.150
 OXIDANT     N2O                          1.0000000         0.000      0.000

 O/F=    0.30000  %FUEL= 76.923077  R,EQ.RATIO=30.461756  PHI,EQ.RATIO=30.461756

                 CHAMBER   THROAT     EXIT
 Pinf/P            1.0000   1.7294   20.623
 P, BAR            44.583   25.780   2.1618
 T, K              874.34   821.50   602.87
 RHO, KG/CU M    1.7733 1 1.0913 1 1.2470 0
 H, KJ/KG        -1428.71 -1562.24 -2067.92
 U, KJ/KG        -1680.13 -1798.47 -2241.28
 G, KJ/KG        -8218.93 -7942.16 -6749.94
 S, KJ/(KG)(K)     7.7662   7.7662   7.7662

 M, (1/n)          28.915   28.915   28.915
 MW, MOL WT        13.981   13.981   13.981
 Cp, KJ/(KG)(K)    2.5648   2.4894   2.1198
 GAMMAs            1.1263   1.1306   1.1569
 SON VEL,M/SEC      532.1    516.8    447.8
 MACH NUMBER        0.000    1.000    2.525

 PERFORMANCE PARAMETERS

 Ae/At                      1.0000   4.0000
 CSTAR, M/SEC                790.5    790.5
 CF                         0.6537   1.4303
 Ivac, M/SEC                 973.9   1284.0
 Isp, M/SEC                  516.8   1130.7

 MASS FRACTIONS

 CH4             0.29923   *CO             0.00412   *CO2            0.01344
 C2H6            0.00009   *H2             0.01153   H2O             0.08081
 NH3             0.00103   *N2             0.14603   C(gr)           0.44372

  * THERMODYNAMIC PROPERTIES FITTED TO 20000.K

 NOTE. WEIGHT FRACTION OF FUEL IN TOTAL FUELS AND OF OXIDANT IN TOTAL OXIDANTS

           THEORETICAL ROCKET PERFORMANCE ASSUMING FROZEN COMPOSITION

 Pin =   661.3 PSIA
 CASE = _______________

             REACTANT                    WT FRACTION      ENERGY      TEMP
                                          (SEE NOTE)     KJ/KG-MOL      K  
 FUEL        paraffin                     1.0000000  -1860600.000    298.150
 OXIDANT     N2O                          1.0000000         0.000      0.000

 O/F=    0.30000  %FUEL= 76.923077  R,EQ.RATIO=30.461756  PHI,EQ.RATIO=30.461756

                 CHAMBER   THROAT     EXIT
 Pinf/P            1.0000   1.7293   20.617
 P, BAR            45.596   26.367   2.2115
 T, K              874.98   822.16   603.54
 RHO, KG/CU M    1.8132 1 1.1159 1 1.2750 0
 H, KJ/KG        -1428.71 -1562.26 -2068.09
 U, KJ/KG        -1680.17 -1798.55 -2241.54
 G, KJ/KG        -8218.32 -7941.96 -6751.39
 S, KJ/(KG)(K)     7.7597   7.7597   7.7597

 M, (1/n)          28.931   28.931   28.931
 MW, MOL WT        13.988   13.988   13.988
 Cp, KJ/(KG)(K)    2.5654   2.4901   2.1207
 GAMMAs            1.1262   1.1305   1.1568
 SON VEL,M/SEC      532.2    516.8    447.9
 MACH NUMBER        0.000    1.000    2.525

 PERFORMANCE PARAMETERS

 Ae/At                      1.0000   4.0000
 CSTAR, M/SEC                790.6    790.6
 CF                         0.6537   1.4303
 Ivac, M/SEC                 974.0   1284.2
 Isp, M/SEC                  516.8   1130.8

 MASS FRACTIONS

 CH4             0.29953   *CO             0.00411   *CO2            0.01344
 C2H6            0.00009   *H2             0.01145   H2O             0.08081
 NH3             0.00104   *N2             0.14603   C(gr)           0.44350

  * THERMODYNAMIC PROPERTIES FITTED TO 20000.K

 NOTE. WEIGHT FRACTION OF FUEL IN TOTAL FUELS AND OF OXIDANT IN TOTAL OXIDANTS

           THEORETICAL ROCKET PERFORMANCE ASSUMING FROZEN COMPOSITION

 Pin =   676.0 PSIA
 CASE = _______________

             REACTANT                    WT FRACTION      ENERGY      TEMP
                                          (SEE NOTE)     KJ/KG-MOL      K  
 FUEL        paraffin                     1.0000000  -1860600.000    298.150
 OXIDANT     N2O                          1.0000000         0.000      0.000

 O/F=    0.30000  %FUEL= 76.923077  R,EQ.RATIO=30.461756  PHI,EQ.RATIO=30.461756

                 CHAMBER   THROAT     EXIT
 Pinf/P            1.0000   1.7292   20.611
 P, BAR            46.609   26.954   2.2613
 T, K              875.62   822.80   604.19
 RHO, KG/CU M    1.8532 1 1.1405 1 1.3030 0
 H, KJ/KG        -1428.71 -1562.28 -2068.25
 U, KJ/KG        -1680.22 -1798.62 -2241.80
 G, KJ/KG        -8217.70 -7941.74 -6752.77
 S, KJ/(KG)(K)     7.7534   7.7534   7.7534

 M, (1/n)          28.946   28.946   28.946
 MW, MOL WT        13.995   13.995   13.995
 Cp, KJ/(KG)(K)    2.5661   2.4908   2.1215
 GAMMAs            1.1260   1.1304   1.1566
 SON VEL,M/SEC      532.2    516.9    448.0
 MACH NUMBER        0.000    1.000    2.524

 PERFORMANCE PARAMETERS

 Ae/At                     1.00000   4.0000
 CSTAR, M/SEC                790.7    790.7
 CF                         0.6537   1.4303
 Ivac, M/SEC                 974.1   1284.4
 Isp, M/SEC                  516.9   1131.0

 MASS FRACTIONS

 CH4             0.29981   *CO             0.00410   *CO2            0.01344
 C2H6            0.00009   *H2             0.01138   H2O             0.08082
 NH3             0.00105   *N2             0.14602   C(gr)           0.44329

  * THERMODYNAMIC PROPERTIES FITTED TO 20000.K

 NOTE. WEIGHT FRACTION OF FUEL IN TOTAL FUELS AND OF OXIDANT IN TOTAL OXIDANTS

           THEORETICAL ROCKET PERFORMANCE ASSUMING FROZEN COMPOSITION

 Pin =   690.7 PSIA
 CASE = _______________

             REACTANT                    WT FRACTION      ENERGY      TEMP
                                          (SEE NOTE)     KJ/KG-MOL      K  
 FUEL        paraffin                     1.0000000  -1860600.000    298.150
 OXIDANT     N2O                          1.0000000         0.000      0.000

 O/F=    0.30000  %FUEL= 76.923077  R,EQ.RATIO=30.461756  PHI,EQ.RATIO=30.461756

                 CHAMBER   THROAT     EXIT
 Pinf/P            1.0000   1.7292   20.606
 P, BAR            47.623   27.541   2.3111
 T, K              876.23   823.42   604.83
 RHO, KG/CU M    1.8931 1 1.1650 1 1.3310 0
 H, KJ/KG        -1428.71 -1562.30 -2068.40
 U, KJ/KG        -1680.27 -1798.70 -2242.04
 G, KJ/KG        -8217.08 -7941.51 -6754.11
 S, KJ/(KG)(K)     7.7472   7.7472   7.7472

 M, (1/n)          28.961   28.961   28.961
 MW, MOL WT        14.002   14.002   14.002
 Cp, KJ/(KG)(K)    2.5667   2.4914   2.1223
 GAMMAs            1.1259   1.1302   1.1564
 SON VEL,M/SEC      532.2    516.9    448.1
 MACH NUMBER        0.000    1.000    2.524

 PERFORMANCE PARAMETERS

 Ae/At                      1.0000   4.0000
 CSTAR, M/SEC                790.8    790.8
 CF                         0.6536   1.4303
 Ivac, M/SEC                 974.2   1284.6
 Isp, M/SEC                  516.9   1131.1

 MASS FRACTIONS

 CH4             0.30009   *CO             0.00409   *CO2            0.01345
 C2H6            0.00010   *H2             0.01131   H2O             0.08082
 NH3             0.00105   *N2             0.14601   C(gr)           0.44309

  * THERMODYNAMIC PROPERTIES FITTED TO 20000.K

 NOTE. WEIGHT FRACTION OF FUEL IN TOTAL FUELS AND OF OXIDANT IN TOTAL OXIDANTS

           THEORETICAL ROCKET PERFORMANCE ASSUMING FROZEN COMPOSITION

 Pin =   705.4 PSIA
 CASE = _______________

             REACTANT                    WT FRACTION      ENERGY      TEMP
                                          (SEE NOTE)     KJ/KG-MOL      K  
 FUEL        paraffin                     1.0000000  -1860600.000    298.150
 OXIDANT     N2O                          1.0000000         0.000      0.000

 O/F=    0.30000  %FUEL= 76.923077  R,EQ.RATIO=30.461756  PHI,EQ.RATIO=30.461756

                 CHAMBER   THROAT     EXIT
 Pinf/P            1.0000   1.7291   20.600
 P, BAR            48.636   28.128   2.3610
 T, K              876.84   824.03   605.45
 RHO, KG/CU M    1.9330 1 1.1896 1 1.3590 0
 H, KJ/KG        -1428.71 -1562.32 -2068.55
 U, KJ/KG        -1680.31 -1798.77 -2242.28
 G, KJ/KG        -8216.44 -7941.26 -6755.41
 S, KJ/(KG)(K)     7.7412   7.7412   7.7412

 M, (1/n)          28.976   28.976   28.976
 MW, MOL WT        14.008   14.008   14.008
 Cp, KJ/(KG)(K)    2.5673   2.4921   2.1231
 GAMMAs            1.1258   1.1301   1.1563
 SON VEL,M/SEC      532.2    516.9    448.2
 MACH NUMBER        0.000    1.000    2.524

 PERFORMANCE PARAMETERS

 Ae/At                     1.00000   4.0000
 CSTAR, M/SEC                790.9    790.9
 CF                         0.6536   1.4303
 Ivac, M/SEC                 974.3   1284.8
 Isp, M/SEC                  516.9   1131.2

 MASS FRACTIONS

 CH4             0.30036   *CO             0.00408   *CO2            0.01345
 C2H6            0.00010   *H2             0.01124   H2O             0.08082
 NH3             0.00106   *N2             0.14601   C(gr)           0.44289

  * THERMODYNAMIC PROPERTIES FITTED TO 20000.K

 NOTE. WEIGHT FRACTION OF FUEL IN TOTAL FUELS AND OF OXIDANT IN TOTAL OXIDANTS

           THEORETICAL ROCKET PERFORMANCE ASSUMING FROZEN COMPOSITION

 Pin =   367.4 PSIA
 CASE = _______________

             REACTANT                    WT FRACTION      ENERGY      TEMP
                                          (SEE NOTE)     KJ/KG-MOL      K  
 FUEL        paraffin                     1.0000000  -1860600.000    298.150
 OXIDANT     N2O                          1.0000000         0.000      0.000

 O/F=    0.50000  %FUEL= 66.666667  R,EQ.RATIO=18.277054  PHI,EQ.RATIO=18.277054

                 CHAMBER   THROAT     EXIT
 Pinf/P            1.0000   1.7411   21.457
 P, BAR            25.331   14.549   1.1806
 T, K              956.18   890.51   626.65
 RHO, KG/CU M    8.4143 0 5.1892 0 5.9836-1
 H, KJ/KG        -1238.21 -1399.37 -1995.74
 U, KJ/KG        -1539.26 -1679.75 -2193.04
 G, KJ/KG        -9326.59 -8932.30 -7296.58
 S, KJ/(KG)(K)     8.4591   8.4591   8.4591

 M, (1/n)          26.408   26.408   26.408
 MW, MOL WT        13.819   13.819   13.819
 Cp, KJ/(KG)(K)    2.4882   2.4197   2.0817
 GAMMAs            1.1449   1.1496   1.1782
 SON VEL,M/SEC      587.1    567.7    482.1
 MACH NUMBER        0.000    1.000    2.553

 PERFORMANCE PARAMETERS

 Ae/At                      1.0000   4.0000
 CSTAR, M/SEC                859.8    859.8
 CF                         0.6603   1.4315
 Ivac, M/SEC                1061.6   1391.2
 Isp, M/SEC                  567.7   1230.9

 MASS FRACTIONS

 CH4             0.20045   *CO             0.02414   *CO2            0.03181
 C2H6            0.00005   *H2             0.02201   H2O             0.09487
 NH3             0.00089   *N2             0.21143   C(gr)           0.41434

  * THERMODYNAMIC PROPERTIES FITTED TO 20000.K

 NOTE. WEIGHT FRACTION OF FUEL IN TOTAL FUELS AND OF OXIDANT IN TOTAL OXIDANTS

           THEORETICAL ROCKET PERFORMANCE ASSUMING FROZEN COMPOSITION

 Pin =   382.1 PSIA
 CASE = _______________

             REACTANT                    WT FRACTION      ENERGY      TEMP
                                          (SEE NOTE)     KJ/KG-MOL      K  
 FUEL        paraffin                     1.0000000  -1860600.000    298.150
 OXIDANT     N2O                          1.0000000         0.000      0.000

 O/F=    0.50000  %FUEL= 66.666667  R,EQ.RATIO=18.277054  PHI,EQ.RATIO=18.277054

                 CHAMBER   THROAT     EXIT
 Pinf/P            1.0000   1.7409   21.442
 P, BAR            26.345   15.133   1.2286
 T, K              957.87   892.22   628.31
 RHO, KG/CU M    8.7463 0 5.3938 0 6.2186-1
 H, KJ/KG        -1238.21 -1399.44 -1996.25
 U, KJ/KG        -1539.42 -1680.00 -2193.83
 G, KJ/KG        -9329.12 -8935.78 -7303.45
 S, KJ/(KG)(K)     8.4467   8.4467   8.4467

 M, (1/n)          26.441   26.441   26.441
 MW, MOL WT        13.836   13.836   13.836
 Cp, KJ/(KG)(K)    2.4895   2.4210   2.0833
 GAMMAs            1.1446   1.1493   1.1778
 SON VEL,M/SEC      587.2    567.8    482.4
 MACH NUMBER        0.000    1.000    2.552

 PERFORMANCE PARAMETERS

 Ae/At                      1.0000   4.0000
 CSTAR, M/SEC                860.1    860.1
 CF                         0.6602   1.4315
 Ivac, M/SEC                1061.9   1391.8
 Isp, M/SEC                  567.8   1231.3

 MASS FRACTIONS

 CH4             0.20118   *CO             0.02411   *CO2            0.03180
 C2H6            0.00005   *H2             0.02183   H2O             0.09490
 NH3             0.00091   *N2             0.21141   C(gr)           0.41381

  * THERMODYNAMIC PROPERTIES FITTED TO 20000.K

 NOTE. WEIGHT FRACTION OF FUEL IN TOTAL FUELS AND OF OXIDANT IN TOTAL OXIDANTS

           THEORETICAL ROCKET PERFORMANCE ASSUMING FROZEN COMPOSITION

 Pin =   396.8 PSIA
 CASE = _______________

             REACTANT                    WT FRACTION      ENERGY      TEMP
                                          (SEE NOTE)     KJ/KG-MOL      K  
 FUEL        paraffin                     1.0000000  -1860600.000    298.150
 OXIDANT     N2O                          1.0000000         0.000      0.000

 O/F=    0.50000  %FUEL= 66.666667  R,EQ.RATIO=18.277054  PHI,EQ.RATIO=18.277054

                 CHAMBER   THROAT     EXIT
 Pinf/P            1.0000   1.7407   21.427
 P, BAR            27.358   15.717   1.2768
 T, K              959.50   893.86   629.92
 RHO, KG/CU M    9.0782 0 5.5983 0 6.4535-1
 H, KJ/KG        -1238.21 -1399.50 -1996.75
 U, KJ/KG        -1539.57 -1680.24 -2194.59
 G, KJ/KG        -9331.52 -8939.09 -7310.03
 S, KJ/(KG)(K)     8.4349   8.4349   8.4349

 M, (1/n)          26.473   26.473   26.473
 MW, MOL WT        13.853   13.853   13.853
 Cp, KJ/(KG)(K)    2.4907   2.4222   2.0847
 GAMMAs            1.1443   1.1490   1.1774
 SON VEL,M/SEC      587.2    567.9    482.6
 MACH NUMBER        0.000    1.000    2.552

 PERFORMANCE PARAMETERS

 Ae/At                      1.0000   4.0000
 CSTAR, M/SEC                860.4    860.4
 CF                         0.6601   1.4315
 Ivac, M/SEC                1062.3   1392.3
 Isp, M/SEC                  567.9   1231.7

 MASS FRACTIONS

 CH4             0.20187   *CO             0.02407   *CO2            0.03179
 C2H6            0.00005   *H2             0.02165   H2O             0.09493
 NH3             0.00092   *N2             0.21140   C(gr)           0.41331

  * THERMODYNAMIC PROPERTIES FITTED TO 20000.K

 NOTE. WEIGHT FRACTION OF FUEL IN TOTAL FUELS AND OF OXIDANT IN TOTAL OXIDANTS

           THEORETICAL ROCKET PERFORMANCE ASSUMING FROZEN COMPOSITION

 Pin =   411.5 PSIA
 CASE = _______________

             REACTANT                    WT FRACTION      ENERGY      TEMP
                                          (SEE NOTE)     KJ/KG-MOL      K  
 FUEL        paraffin                     1.0000000  -1860600.000    298.150
 OXIDANT     N2O                          1.0000000         0.000      0.000

 O/F=    0.50000  %FUEL= 66.666667  R,EQ.RATIO=18.277054  PHI,EQ.RATIO=18.277054

                 CHAMBER   THROAT     EXIT
 Pinf/P            1.0000   1.7405   21.413
 P, BAR            28.371   16.300   1.3249
 T, K              961.07   895.44   631.46
 RHO, KG/CU M    9.4099 0 5.8027 0 6.6882-1
 H, KJ/KG        -1238.21 -1399.55 -1997.22
 U, KJ/KG        -1539.72 -1680.46 -2195.32
 G, KJ/KG        -9333.79 -8942.23 -7316.33
 S, KJ/(KG)(K)     8.4235   8.4235   8.4235

 M, (1/n)          26.504   26.504   26.504
 MW, MOL WT        13.869   13.869   13.869
 Cp, KJ/(KG)(K)    2.4918   2.4234   2.0861
 GAMMAs            1.1440   1.1487   1.1770
 SON VEL,M/SEC      587.3    568.1    482.9
 MACH NUMBER        0.000    1.000    2.552

 PERFORMANCE PARAMETERS

 Ae/At                      1.0000   4.0000
 CSTAR, M/SEC                860.7    860.7
 CF                         0.6600   1.4315
 Ivac, M/SEC                1062.6   1392.9
 Isp, M/SEC                  568.0   1232.1

 MASS FRACTIONS

 CH4             0.20254   *CO             0.02404   *CO2            0.03178
 C2H6            0.00006   *H2             0.02147   H2O             0.09496
 NH3             0.00093   *N2             0.21139   C(gr)           0.41283

  * THERMODYNAMIC PROPERTIES FITTED TO 20000.K

 NOTE. WEIGHT FRACTION OF FUEL IN TOTAL FUELS AND OF OXIDANT IN TOTAL OXIDANTS

           THEORETICAL ROCKET PERFORMANCE ASSUMING FROZEN COMPOSITION

 Pin =   426.2 PSIA
 CASE = _______________

             REACTANT                    WT FRACTION      ENERGY      TEMP
                                          (SEE NOTE)     KJ/KG-MOL      K  
 FUEL        paraffin                     1.0000000  -1860600.000    298.150
 OXIDANT     N2O                          1.0000000         0.000      0.000

 O/F=    0.50000  %FUEL= 66.666667  R,EQ.RATIO=18.277054  PHI,EQ.RATIO=18.277054

                 CHAMBER   THROAT     EXIT
 Pinf/P            1.0000   1.7403   21.400
 P, BAR            29.384   16.884   1.3731
 T, K              962.59   896.96   632.95
 RHO, KG/CU M    9.7415 0 6.0070 0 6.9229-1
 H, KJ/KG        -1238.21 -1399.61 -1997.67
 U, KJ/KG        -1539.85 -1680.68 -2196.02
 G, KJ/KG        -9335.94 -8945.24 -7322.38
 S, KJ/(KG)(K)     8.4125   8.4125   8.4125

 M, (1/n)          26.533   26.533   26.533
 MW, MOL WT        13.885   13.885   13.885
 Cp, KJ/(KG)(K)    2.4930   2.4246   2.0875
 GAMMAs            1.1438   1.1484   1.1766
 SON VEL,M/SEC      587.4    568.1    483.1
 MACH NUMBER        0.000    1.000    2.551

 PERFORMANCE PARAMETERS

 Ae/At                      1.0000   4.0000
 CSTAR, M/SEC                861.0    861.0
 CF                         0.6599   1.4314
 Ivac, M/SEC                1062.9   1393.4
 Isp, M/SEC                  568.1   1232.4

 MASS FRACTIONS

 CH4             0.20318   *CO             0.02401   *CO2            0.03177
 C2H6            0.00006   *H2             0.02131   H2O             0.09499
 NH3             0.00095   *N2             0.21138   C(gr)           0.41236

  * THERMODYNAMIC PROPERTIES FITTED TO 20000.K

 NOTE. WEIGHT FRACTION OF FUEL IN TOTAL FUELS AND OF OXIDANT IN TOTAL OXIDANTS

           THEORETICAL ROCKET PERFORMANCE ASSUMING FROZEN COMPOSITION

 Pin =   440.9 PSIA
 CASE = _______________

             REACTANT                    WT FRACTION      ENERGY      TEMP
                                          (SEE NOTE)     KJ/KG-MOL      K  
 FUEL        paraffin                     1.0000000  -1860600.000    298.150
 OXIDANT     N2O                          1.0000000         0.000      0.000

 O/F=    0.50000  %FUEL= 66.666667  R,EQ.RATIO=18.277054  PHI,EQ.RATIO=18.277054

                 CHAMBER   THROAT     EXIT
 Pinf/P            1.0000   1.7402   21.387
 P, BAR            30.398   17.468   1.4213
 T, K              964.05   898.43   634.40
 RHO, KG/CU M    1.0073 1 6.2113 0 7.1574-1
 H, KJ/KG        -1238.21 -1399.66 -1998.11
 U, KJ/KG        -1539.98 -1680.89 -2196.69
 G, KJ/KG        -9337.99 -8948.11 -7328.20
 S, KJ/(KG)(K)     8.4018   8.4018   8.4018

 M, (1/n)          26.562   26.562   26.562
 MW, MOL WT        13.900   13.900   13.900
 Cp, KJ/(KG)(K)    2.4941   2.4257   2.0888
 GAMMAs            1.1435   1.1482   1.1763
 SON VEL,M/SEC      587.4    568.2    483.3
 MACH NUMBER        0.000    1.000    2.551

 PERFORMANCE PARAMETERS

 Ae/At                      1.0000   4.0000
 CSTAR, M/SEC                861.2    861.2
 CF                         0.6598   1.4314
 Ivac, M/SEC                1063.2   1393.9
 Isp, M/SEC                  568.2   1232.8

 MASS FRACTIONS

 CH4             0.20379   *CO             0.02397   *CO2            0.03177
 C2H6            0.00006   *H2             0.02114   H2O             0.09501
 NH3             0.00096   *N2             0.21137   C(gr)           0.41192

  * THERMODYNAMIC PROPERTIES FITTED TO 20000.K

 NOTE. WEIGHT FRACTION OF FUEL IN TOTAL FUELS AND OF OXIDANT IN TOTAL OXIDANTS

           THEORETICAL ROCKET PERFORMANCE ASSUMING FROZEN COMPOSITION

 Pin =   455.6 PSIA
 CASE = _______________

             REACTANT                    WT FRACTION      ENERGY      TEMP
                                          (SEE NOTE)     KJ/KG-MOL      K  
 FUEL        paraffin                     1.0000000  -1860600.000    298.150
 OXIDANT     N2O                          1.0000000         0.000      0.000

 O/F=    0.50000  %FUEL= 66.666667  R,EQ.RATIO=18.277054  PHI,EQ.RATIO=18.277054

                 CHAMBER   THROAT     EXIT
 Pinf/P            1.0000   1.7400   21.374
 P, BAR            31.411   18.052   1.4696
 T, K              965.46   899.85   635.79
 RHO, KG/CU M    1.0404 1 6.4155 0 7.3918-1
 H, KJ/KG        -1238.21 -1399.71 -1998.53
 U, KJ/KG        -1540.11 -1681.09 -2197.33
 G, KJ/KG        -9339.94 -8950.85 -7333.81
 S, KJ/(KG)(K)     8.3916   8.3916   8.3916

 M, (1/n)          26.590   26.590   26.590
 MW, MOL WT        13.914   13.914   13.914
 Cp, KJ/(KG)(K)    2.4951   2.4268   2.0901
 GAMMAs            1.1433   1.1479   1.1759
 SON VEL,M/SEC      587.5    568.3    483.5
 MACH NUMBER        0.000    1.000    2.550

 PERFORMANCE PARAMETERS

 Ae/At                      1.0000   4.0000
 CSTAR, M/SEC                861.5    861.5
 CF                         0.6597   1.4314
 Ivac, M/SEC                1063.4   1394.4
 Isp, M/SEC                  568.3   1233.1

 MASS FRACTIONS

 CH4             0.20439   *CO             0.02394   *CO2            0.03176
 C2H6            0.00006   *H2             0.02099   H2O             0.09504
 NH3             0.00097   *N2             0.21136   C(gr)           0.41148

  * THERMODYNAMIC PROPERTIES FITTED TO 20000.K

 NOTE. WEIGHT FRACTION OF FUEL IN TOTAL FUELS AND OF OXIDANT IN TOTAL OXIDANTS

           THEORETICAL ROCKET PERFORMANCE ASSUMING FROZEN COMPOSITION

 Pin =   470.3 PSIA
 CASE = _______________

             REACTANT                    WT FRACTION      ENERGY      TEMP
                                          (SEE NOTE)     KJ/KG-MOL      K  
 FUEL        paraffin                     1.0000000  -1860600.000    298.150
 OXIDANT     N2O                          1.0000000         0.000      0.000

 O/F=    0.50000  %FUEL= 66.666667  R,EQ.RATIO=18.277054  PHI,EQ.RATIO=18.277054

                 CHAMBER   THROAT     EXIT
 Pinf/P            1.0000   1.7399   21.362
 P, BAR            32.424   18.636   1.5178
 T, K              966.82   901.22   637.14
 RHO, KG/CU M    1.0736 1 6.6196 0 7.6261-1
 H, KJ/KG        -1238.21 -1399.76 -1998.93
 U, KJ/KG        -1540.23 -1681.28 -2197.96
 G, KJ/KG        -9341.80 -8953.47 -7339.21
 S, KJ/(KG)(K)     8.3817   8.3817   8.3817

 M, (1/n)          26.617   26.617   26.617
 MW, MOL WT        13.928   13.928   13.928
 Cp, KJ/(KG)(K)    2.4962   2.4279   2.0913
 GAMMAs            1.1430   1.1477   1.1756
 SON VEL,M/SEC      587.6    568.4    483.7
 MACH NUMBER        0.000    1.000    2.550

 PERFORMANCE PARAMETERS

 Ae/At                      1.0000   4.0000
 CSTAR, M/SEC                861.7    861.7
 CF                         0.6596   1.4314
 Ivac, M/SEC                1063.7   1394.8
 Isp, M/SEC                  568.4   1233.5

 MASS FRACTIONS

 CH4             0.20497   *CO             0.02390   *CO2            0.03176
 C2H6            0.00006   *H2             0.02084   H2O             0.09507
 NH3             0.00098   *N2             0.21135   C(gr)           0.41107

  * THERMODYNAMIC PROPERTIES FITTED TO 20000.K

 NOTE. WEIGHT FRACTION OF FUEL IN TOTAL FUELS AND OF OXIDANT IN TOTAL OXIDANTS

           THEORETICAL ROCKET PERFORMANCE ASSUMING FROZEN COMPOSITION

 Pin =   485.0 PSIA
 CASE = _______________

             REACTANT                    WT FRACTION      ENERGY      TEMP
                                          (SEE NOTE)     KJ/KG-MOL      K  
 FUEL        paraffin                     1.0000000  -1860600.000    298.150
 OXIDANT     N2O                          1.0000000         0.000      0.000

 O/F=    0.50000  %FUEL= 66.666667  R,EQ.RATIO=18.277054  PHI,EQ.RATIO=18.277054

                 CHAMBER   THROAT     EXIT
 Pinf/P            1.0000   1.7397   21.350
 P, BAR            33.437   19.220   1.5661
 T, K              968.14   902.55   638.45
 RHO, KG/CU M    1.1067 1 6.8237 0 7.8604-1
 H, KJ/KG        -1238.21 -1399.81 -1999.31
 U, KJ/KG        -1540.35 -1681.47 -2198.56
 G, KJ/KG        -9343.57 -8955.99 -7344.42
 S, KJ/(KG)(K)     8.3721   8.3721   8.3721

 M, (1/n)          26.643   26.643   26.643
 MW, MOL WT        13.942   13.942   13.942
 Cp, KJ/(KG)(K)    2.4971   2.4289   2.0925
 GAMMAs            1.1428   1.1474   1.1753
 SON VEL,M/SEC      587.6    568.5    483.9
 MACH NUMBER        0.000    1.000    2.550

 PERFORMANCE PARAMETERS

 Ae/At                      1.0000   4.0000
 CSTAR, M/SEC                862.0    862.0
 CF                         0.6595   1.4314
 Ivac, M/SEC                1063.9   1395.3
 Isp, M/SEC                  568.5   1233.8

 MASS FRACTIONS

 CH4             0.20552   *CO             0.02387   *CO2            0.03175
 C2H6            0.00006   *H2             0.02069   H2O             0.09509
 NH3             0.00100   *N2             0.21134   C(gr)           0.41067

  * THERMODYNAMIC PROPERTIES FITTED TO 20000.K

 NOTE. WEIGHT FRACTION OF FUEL IN TOTAL FUELS AND OF OXIDANT IN TOTAL OXIDANTS

           THEORETICAL ROCKET PERFORMANCE ASSUMING FROZEN COMPOSITION

 Pin =   499.7 PSIA
 CASE = _______________

             REACTANT                    WT FRACTION      ENERGY      TEMP
                                          (SEE NOTE)     KJ/KG-MOL      K  
 FUEL        paraffin                     1.0000000  -1860600.000    298.150
 OXIDANT     N2O                          1.0000000         0.000      0.000

 O/F=    0.50000  %FUEL= 66.666667  R,EQ.RATIO=18.277054  PHI,EQ.RATIO=18.277054

                 CHAMBER   THROAT     EXIT
 Pinf/P            1.0000   1.7396   21.339
 P, BAR            34.450   19.804   1.6144
 T, K              969.42   903.84   639.71
 RHO, KG/CU M    1.1398 1 7.0277 0 8.0945-1
 H, KJ/KG        -1238.21 -1399.85 -1999.69
 U, KJ/KG        -1540.46 -1681.65 -2199.14
 G, KJ/KG        -9345.26 -8958.40 -7349.45
 S, KJ/(KG)(K)     8.3627   8.3627   8.3627

 M, (1/n)          26.668   26.668   26.668
 MW, MOL WT        13.955   13.955   13.955
 Cp, KJ/(KG)(K)    2.4981   2.4299   2.0937
 GAMMAs            1.1426   1.1472   1.1750
 SON VEL,M/SEC      587.7    568.6    484.1
 MACH NUMBER        0.000    1.000    2.549

 PERFORMANCE PARAMETERS

 Ae/At                      1.0000   4.0000
 CSTAR, M/SEC                862.2    862.2
 CF                         0.6595   1.4313
 Ivac, M/SEC                1064.2   1395.7
 Isp, M/SEC                  568.6   1234.1

 MASS FRACTIONS

 CH4             0.20606   *CO             0.02384   *CO2            0.03175
 C2H6            0.00007   *H2             0.02055   H2O             0.09512
 NH3             0.00101   *N2             0.21133   C(gr)           0.41028

  * THERMODYNAMIC PROPERTIES FITTED TO 20000.K

 NOTE. WEIGHT FRACTION OF FUEL IN TOTAL FUELS AND OF OXIDANT IN TOTAL OXIDANTS

           THEORETICAL ROCKET PERFORMANCE ASSUMING FROZEN COMPOSITION

 Pin =   514.4 PSIA
 CASE = _______________

             REACTANT                    WT FRACTION      ENERGY      TEMP
                                          (SEE NOTE)     KJ/KG-MOL      K  
 FUEL        paraffin                     1.0000000  -1860600.000    298.150
 OXIDANT     N2O                          1.0000000         0.000      0.000

 O/F=    0.50000  %FUEL= 66.666667  R,EQ.RATIO=18.277054  PHI,EQ.RATIO=18.277054

                 CHAMBER   THROAT     EXIT
 Pinf/P            1.0000   1.7394   21.328
 P, BAR            35.464   20.388   1.6628
 T, K              970.67   905.09   640.94
 RHO, KG/CU M    1.1729 1 7.2317 0 8.3285-1
 H, KJ/KG        -1238.21 -1399.89 -2000.05
 U, KJ/KG        -1540.57 -1681.82 -2199.70
 G, KJ/KG        -9346.87 -8960.72 -7354.31
 S, KJ/(KG)(K)     8.3537   8.3537   8.3537

 M, (1/n)          26.693   26.693   26.693
 MW, MOL WT        13.968   13.968   13.968
 Cp, KJ/(KG)(K)    2.4990   2.4309   2.0949
 GAMMAs            1.1424   1.1470   1.1747
 SON VEL,M/SEC      587.7    568.6    484.3
 MACH NUMBER        0.000    1.000    2.549

 PERFORMANCE PARAMETERS

 Ae/At                      1.0000   4.0000
 CSTAR, M/SEC                862.4    862.4
 CF                         0.6594   1.4313
 Ivac, M/SEC                1064.4   1396.1
 Isp, M/SEC                  568.6   1234.4

 MASS FRACTIONS

 CH4             0.20658   *CO             0.02380   *CO2            0.03174
 C2H6            0.00007   *H2             0.02042   H2O             0.09514
 NH3             0.00102   *N2             0.21132   C(gr)           0.40990

  * THERMODYNAMIC PROPERTIES FITTED TO 20000.K

 NOTE. WEIGHT FRACTION OF FUEL IN TOTAL FUELS AND OF OXIDANT IN TOTAL OXIDANTS

           THEORETICAL ROCKET PERFORMANCE ASSUMING FROZEN COMPOSITION

 Pin =   529.1 PSIA
 CASE = _______________

             REACTANT                    WT FRACTION      ENERGY      TEMP
                                          (SEE NOTE)     KJ/KG-MOL      K  
 FUEL        paraffin                     1.0000000  -1860600.000    298.150
 OXIDANT     N2O                          1.0000000         0.000      0.000

 O/F=    0.50000  %FUEL= 66.666667  R,EQ.RATIO=18.277054  PHI,EQ.RATIO=18.277054

                 CHAMBER   THROAT     EXIT
 Pinf/P            1.0000   1.7393   21.317
 P, BAR            36.477   20.972   1.7111
 T, K              971.87   906.30   642.14
 RHO, KG/CU M    1.2060 1 7.4355 0 8.5625-1
 H, KJ/KG        -1238.21 -1399.93 -2000.40
 U, KJ/KG        -1540.67 -1681.99 -2200.24
 G, KJ/KG        -9348.42 -8962.94 -7359.01
 S, KJ/(KG)(K)     8.3449   8.3449   8.3449

 M, (1/n)          26.717   26.717   26.717
 MW, MOL WT        13.981   13.981   13.981
 Cp, KJ/(KG)(K)    2.5000   2.4318   2.0960
 GAMMAs            1.1422   1.1468   1.1744
 SON VEL,M/SEC      587.8    568.7    484.4
 MACH NUMBER        0.000    1.000    2.549

 PERFORMANCE PARAMETERS

 Ae/At                      1.0000   4.0000
 CSTAR, M/SEC                862.6    862.6
 CF                         0.6593   1.4313
 Ivac, M/SEC                1064.7   1396.5
 Isp, M/SEC                  568.7   1234.7

 MASS FRACTIONS

 CH4             0.20709   *CO             0.02377   *CO2            0.03174
 C2H6            0.00007   *H2             0.02029   H2O             0.09517
 NH3             0.00103   *N2             0.21131   C(gr)           0.40954

  * THERMODYNAMIC PROPERTIES FITTED TO 20000.K

 NOTE. WEIGHT FRACTION OF FUEL IN TOTAL FUELS AND OF OXIDANT IN TOTAL OXIDANTS

           THEORETICAL ROCKET PERFORMANCE ASSUMING FROZEN COMPOSITION

 Pin =   543.8 PSIA
 CASE = _______________

             REACTANT                    WT FRACTION      ENERGY      TEMP
                                          (SEE NOTE)     KJ/KG-MOL      K  
 FUEL        paraffin                     1.0000000  -1860600.000    298.150
 OXIDANT     N2O                          1.0000000         0.000      0.000

 O/F=    0.50000  %FUEL= 66.666667  R,EQ.RATIO=18.277054  PHI,EQ.RATIO=18.277054

                 CHAMBER   THROAT     EXIT
 Pinf/P            1.0000   1.7392   21.307
 P, BAR            37.490   21.556   1.7595
 T, K              973.04   907.48   643.30
 RHO, KG/CU M    1.2391 1 7.6394 0 8.7963-1
 H, KJ/KG        -1238.21 -1399.97 -2000.73
 U, KJ/KG        -1540.77 -1682.15 -2200.76
 G, KJ/KG        -9349.89 -8965.09 -7363.57
 S, KJ/(KG)(K)     8.3364   8.3364   8.3364

 M, (1/n)          26.740   26.740   26.740
 MW, MOL WT        13.993   13.993   13.993
 Cp, KJ/(KG)(K)    2.5008   2.4327   2.0970
 GAMMAs            1.1420   1.1465   1.1741
 SON VEL,M/SEC      587.8    568.8    484.6
 MACH NUMBER        0.000    1.000    2.548

 PERFORMANCE PARAMETERS

 Ae/At                      1.0000   4.0000
 CSTAR, M/SEC                862.8    862.8
 CF                         0.6592   1.4313
 Ivac, M/SEC                1064.9   1396.9
 Isp, M/SEC                  568.8   1234.9

 MASS FRACTIONS

 CH4             0.20758   *CO             0.02373   *CO2            0.03174
 C2H6            0.00007   *H2             0.02016   H2O             0.09519
 NH3             0.00104   *N2             0.21130   C(gr)           0.40919

  * THERMODYNAMIC PROPERTIES FITTED TO 20000.K

 NOTE. WEIGHT FRACTION OF FUEL IN TOTAL FUELS AND OF OXIDANT IN TOTAL OXIDANTS

           THEORETICAL ROCKET PERFORMANCE ASSUMING FROZEN COMPOSITION

 Pin =   558.4 PSIA
 CASE = _______________

             REACTANT                    WT FRACTION      ENERGY      TEMP
                                          (SEE NOTE)     KJ/KG-MOL      K  
 FUEL        paraffin                     1.0000000  -1860600.000    298.150
 OXIDANT     N2O                          1.0000000         0.000      0.000

 O/F=    0.50000  %FUEL= 66.666667  R,EQ.RATIO=18.277054  PHI,EQ.RATIO=18.277054

                 CHAMBER   THROAT     EXIT
 Pinf/P            1.0000   1.7391   21.297
 P, BAR            38.504   22.140   1.8079
 T, K              974.18   908.62   644.43
 RHO, KG/CU M    1.2722 1 7.8432 0 9.0301-1
 H, KJ/KG        -1238.21 -1400.01 -2001.06
 U, KJ/KG        -1540.87 -1682.30 -2201.27
 G, KJ/KG        -9351.31 -8967.15 -7367.98
 S, KJ/(KG)(K)     8.3281   8.3281   8.3281

 M, (1/n)          26.762   26.762   26.762
 MW, MOL WT        14.004   14.004   14.004
 Cp, KJ/(KG)(K)    2.5017   2.4336   2.0981
 GAMMAs            1.1418   1.1463   1.1738
 SON VEL,M/SEC      587.9    568.9    484.8
 MACH NUMBER        0.000    1.000    2.548

 PERFORMANCE PARAMETERS

 Ae/At                      1.0000   4.0000
 CSTAR, M/SEC                863.0    863.0
 CF                         0.6592   1.4313
 Ivac, M/SEC                1065.1   1397.3
 Isp, M/SEC                  568.9   1235.2

 MASS FRACTIONS

 CH4             0.20805   *CO             0.02370   *CO2            0.03174
 C2H6            0.00007   *H2             0.02003   H2O             0.09522
 NH3             0.00105   *N2             0.21130   C(gr)           0.40884

  * THERMODYNAMIC PROPERTIES FITTED TO 20000.K

 NOTE. WEIGHT FRACTION OF FUEL IN TOTAL FUELS AND OF OXIDANT IN TOTAL OXIDANTS

           THEORETICAL ROCKET PERFORMANCE ASSUMING FROZEN COMPOSITION

 Pin =   573.1 PSIA
 CASE = _______________

             REACTANT                    WT FRACTION      ENERGY      TEMP
                                          (SEE NOTE)     KJ/KG-MOL      K  
 FUEL        paraffin                     1.0000000  -1860600.000    298.150
 OXIDANT     N2O                          1.0000000         0.000      0.000

 O/F=    0.50000  %FUEL= 66.666667  R,EQ.RATIO=18.277054  PHI,EQ.RATIO=18.277054

                 CHAMBER   THROAT     EXIT
 Pinf/P            1.0000   1.7389   21.287
 P, BAR            39.517   22.725   1.8564
 T, K              975.29   909.74   645.53
 RHO, KG/CU M    1.3053 1 8.0469 0 9.2638-1
 H, KJ/KG        -1238.21 -1400.05 -2001.37
 U, KJ/KG        -1540.96 -1682.45 -2201.76
 G, KJ/KG        -9352.67 -8969.13 -7372.26
 S, KJ/(KG)(K)     8.3201   8.3201   8.3201

 M, (1/n)          26.785   26.785   26.785
 MW, MOL WT        14.016   14.016   14.016
 Cp, KJ/(KG)(K)    2.5026   2.4345   2.0991
 GAMMAs            1.1416   1.1461   1.1735
 SON VEL,M/SEC      587.9    568.9    484.9
 MACH NUMBER        0.000    1.000    2.548

 PERFORMANCE PARAMETERS

 Ae/At                      1.0000   4.0000
 CSTAR, M/SEC                863.2    863.2
 CF                         0.6591   1.4313
 Ivac, M/SEC                1065.3   1397.6
 Isp, M/SEC                  568.9   1235.4

 MASS FRACTIONS

 CH4             0.20852   *CO             0.02366   *CO2            0.03173
 C2H6            0.00007   *H2             0.01991   H2O             0.09524
 NH3             0.00106   *N2             0.21129   C(gr)           0.40851

  * THERMODYNAMIC PROPERTIES FITTED TO 20000.K

 NOTE. WEIGHT FRACTION OF FUEL IN TOTAL FUELS AND OF OXIDANT IN TOTAL OXIDANTS

           THEORETICAL ROCKET PERFORMANCE ASSUMING FROZEN COMPOSITION

 Pin =   587.8 PSIA
 CASE = _______________

             REACTANT                    WT FRACTION      ENERGY      TEMP
                                          (SEE NOTE)     KJ/KG-MOL      K  
 FUEL        paraffin                     1.0000000  -1860600.000    298.150
 OXIDANT     N2O                          1.0000000         0.000      0.000

 O/F=    0.50000  %FUEL= 66.666667  R,EQ.RATIO=18.277054  PHI,EQ.RATIO=18.277054

                 CHAMBER   THROAT     EXIT
 Pinf/P            1.0000   1.7388   21.278
 P, BAR            40.530   23.309   1.9048
 T, K              976.37   910.82   646.61
 RHO, KG/CU M    1.3383 1 8.2506 0 9.4974-1
 H, KJ/KG        -1238.21 -1400.09 -2001.68
 U, KJ/KG        -1541.06 -1682.60 -2202.24
 G, KJ/KG        -9353.97 -8971.05 -7376.41
 S, KJ/(KG)(K)     8.3122   8.3122   8.3122

 M, (1/n)          26.806   26.806   26.806
 MW, MOL WT        14.027   14.027   14.027
 Cp, KJ/(KG)(K)    2.5034   2.4354   2.1001
 GAMMAs            1.1414   1.1460   1.1733
 SON VEL,M/SEC      587.9    569.0    485.1
 MACH NUMBER        0.000    1.000    2.547

 PERFORMANCE PARAMETERS

 Ae/At                      1.0000   4.0000
 CSTAR, M/SEC                863.4    863.4
 CF                         0.6590   1.4313
 Ivac, M/SEC                1065.5   1398.0
 Isp, M/SEC                  569.0   1235.7

 MASS FRACTIONS

 CH4             0.20897   *CO             0.02363   *CO2            0.03173
 C2H6            0.00007   *H2             0.01979   H2O             0.09526
 NH3             0.00107   *N2             0.21128   C(gr)           0.40819

  * THERMODYNAMIC PROPERTIES FITTED TO 20000.K

 NOTE. WEIGHT FRACTION OF FUEL IN TOTAL FUELS AND OF OXIDANT IN TOTAL OXIDANTS

           THEORETICAL ROCKET PERFORMANCE ASSUMING FROZEN COMPOSITION

 Pin =   602.5 PSIA
 CASE = _______________

             REACTANT                    WT FRACTION      ENERGY      TEMP
                                          (SEE NOTE)     KJ/KG-MOL      K  
 FUEL        paraffin                     1.0000000  -1860600.000    298.150
 OXIDANT     N2O                          1.0000000         0.000      0.000

 O/F=    0.50000  %FUEL= 66.666667  R,EQ.RATIO=18.277054  PHI,EQ.RATIO=18.277054

                 CHAMBER   THROAT     EXIT
 Pinf/P            1.0000   1.7387   21.269
 P, BAR            41.543   23.893   1.9533
 T, K              977.42   911.88   647.65
 RHO, KG/CU M    1.3714 1 8.4542 0 9.7310-1
 H, KJ/KG        -1238.21 -1400.12 -2001.98
 U, KJ/KG        -1541.14 -1682.74 -2202.70
 G, KJ/KG        -9355.22 -8972.90 -7380.44
 S, KJ/(KG)(K)     8.3046   8.3046   8.3046

 M, (1/n)          26.827   26.827   26.827
 MW, MOL WT        14.038   14.038   14.038
 Cp, KJ/(KG)(K)    2.5042   2.4362   2.1011
 GAMMAs            1.1412   1.1458   1.1730
 SON VEL,M/SEC      588.0    569.0    485.2
 MACH NUMBER        0.000    1.000    2.547

 PERFORMANCE PARAMETERS

 Ae/At                      1.0000   4.0000
 CSTAR, M/SEC                863.5    863.5
 CF                         0.6590   1.4312
 Ivac, M/SEC                1065.7   1398.3
 Isp, M/SEC                  569.0   1235.9

 MASS FRACTIONS

 CH4             0.20940   *CO             0.02360   *CO2            0.03173
 C2H6            0.00008   *H2             0.01968   H2O             0.09528
 NH3             0.00108   *N2             0.21127   C(gr)           0.40787

  * THERMODYNAMIC PROPERTIES FITTED TO 20000.K

 NOTE. WEIGHT FRACTION OF FUEL IN TOTAL FUELS AND OF OXIDANT IN TOTAL OXIDANTS

           THEORETICAL ROCKET PERFORMANCE ASSUMING FROZEN COMPOSITION

 Pin =   617.2 PSIA
 CASE = _______________

             REACTANT                    WT FRACTION      ENERGY      TEMP
                                          (SEE NOTE)     KJ/KG-MOL      K  
 FUEL        paraffin                     1.0000000  -1860600.000    298.150
 OXIDANT     N2O                          1.0000000         0.000      0.000

 O/F=    0.50000  %FUEL= 66.666667  R,EQ.RATIO=18.277054  PHI,EQ.RATIO=18.277054

                 CHAMBER   THROAT     EXIT
 Pinf/P            1.0000   1.7386   21.260
 P, BAR            42.556   24.478   2.0018
 T, K              978.44   912.91   648.67
 RHO, KG/CU M    1.4044 1 8.6578 0 9.9645-1
 H, KJ/KG        -1238.21 -1400.15 -2002.27
 U, KJ/KG        -1541.23 -1682.88 -2203.16
 G, KJ/KG        -9356.41 -8974.68 -7384.36
 S, KJ/(KG)(K)     8.2971   8.2971   8.2971

 M, (1/n)          26.848   26.848   26.848
 MW, MOL WT        14.049   14.049   14.049
 Cp, KJ/(KG)(K)    2.5049   2.4370   2.1020
 GAMMAs            1.1411   1.1456   1.1728
 SON VEL,M/SEC      588.0    569.1    485.4
 MACH NUMBER        0.000    1.000    2.547

 PERFORMANCE PARAMETERS

 Ae/At                      1.0000   4.0000
 CSTAR, M/SEC                863.7    863.7
 CF                         0.6589   1.4312
 Ivac, M/SEC                1065.9   1398.7
 Isp, M/SEC                  569.1   1236.2

 MASS FRACTIONS

 CH4             0.20983   *CO             0.02356   *CO2            0.03173
 C2H6            0.00008   *H2             0.01957   H2O             0.09531
 NH3             0.00109   *N2             0.21126   C(gr)           0.40757

  * THERMODYNAMIC PROPERTIES FITTED TO 20000.K

 NOTE. WEIGHT FRACTION OF FUEL IN TOTAL FUELS AND OF OXIDANT IN TOTAL OXIDANTS

           THEORETICAL ROCKET PERFORMANCE ASSUMING FROZEN COMPOSITION

 Pin =   631.9 PSIA
 CASE = _______________

             REACTANT                    WT FRACTION      ENERGY      TEMP
                                          (SEE NOTE)     KJ/KG-MOL      K  
 FUEL        paraffin                     1.0000000  -1860600.000    298.150
 OXIDANT     N2O                          1.0000000         0.000      0.000

 O/F=    0.50000  %FUEL= 66.666667  R,EQ.RATIO=18.277054  PHI,EQ.RATIO=18.277054

                 CHAMBER   THROAT     EXIT
 Pinf/P            1.0000   1.7385   21.251
 P, BAR            43.570   25.062   2.0503
 T, K              979.44   913.92   649.67
 RHO, KG/CU M    1.4375 1 8.8614 0 1.0198 0
 H, KJ/KG        -1238.21 -1400.19 -2002.55
 U, KJ/KG        -1541.31 -1683.01 -2203.59
 G, KJ/KG        -9357.57 -8976.41 -7388.17
 S, KJ/(KG)(K)     8.2898   8.2898   8.2898

 M, (1/n)          26.868   26.868   26.868
 MW, MOL WT        14.059   14.059   14.059
 Cp, KJ/(KG)(K)    2.5057   2.4378   2.1030
 GAMMAs            1.1409   1.1454   1.1725
 SON VEL,M/SEC      588.1    569.2    485.5
 MACH NUMBER        0.000    1.000    2.546

 PERFORMANCE PARAMETERS

 Ae/At                      1.0000   4.0000
 CSTAR, M/SEC                863.9    863.9
 CF                         0.6588   1.4312
 Ivac, M/SEC                1066.1   1399.0
 Isp, M/SEC                  569.2   1236.4

 MASS FRACTIONS

 CH4             0.21024   *CO             0.02353   *CO2            0.03173
 C2H6            0.00008   *H2             0.01946   H2O             0.09533
 NH3             0.00110   *N2             0.21125   C(gr)           0.40727

  * THERMODYNAMIC PROPERTIES FITTED TO 20000.K

 NOTE. WEIGHT FRACTION OF FUEL IN TOTAL FUELS AND OF OXIDANT IN TOTAL OXIDANTS

           THEORETICAL ROCKET PERFORMANCE ASSUMING FROZEN COMPOSITION

 Pin =   646.6 PSIA
 CASE = _______________

             REACTANT                    WT FRACTION      ENERGY      TEMP
                                          (SEE NOTE)     KJ/KG-MOL      K  
 FUEL        paraffin                     1.0000000  -1860600.000    298.150
 OXIDANT     N2O                          1.0000000         0.000      0.000

 O/F=    0.50000  %FUEL= 66.666667  R,EQ.RATIO=18.277054  PHI,EQ.RATIO=18.277054

                 CHAMBER   THROAT     EXIT
 Pinf/P            1.0000   1.7384   21.242
 P, BAR            44.583   25.646   2.0988
 T, K              980.41   914.90   650.64
 RHO, KG/CU M    1.4705 1 9.0649 0 1.0431 0
 H, KJ/KG        -1238.21 -1400.22 -2002.82
 U, KJ/KG        -1541.39 -1683.14 -2204.02
 G, KJ/KG        -9358.67 -8978.07 -7391.88
 S, KJ/(KG)(K)     8.2827   8.2827   8.2827

 M, (1/n)          26.887   26.887   26.887
 MW, MOL WT        14.069   14.069   14.069
 Cp, KJ/(KG)(K)    2.5065   2.4386   2.1039
 GAMMAs            1.1407   1.1452   1.1723
 SON VEL,M/SEC      588.1    569.2    485.7
 MACH NUMBER        0.000    1.000    2.546

 PERFORMANCE PARAMETERS

 Ae/At                      1.0000   4.0000
 CSTAR, M/SEC                864.0    864.0
 CF                         0.6588   1.4312
 Ivac, M/SEC                1066.3   1399.3
 Isp, M/SEC                  569.2   1236.6

 MASS FRACTIONS

 CH4             0.21065   *CO             0.02349   *CO2            0.03173
 C2H6            0.00008   *H2             0.01935   H2O             0.09535
 NH3             0.00111   *N2             0.21125   C(gr)           0.40698

  * THERMODYNAMIC PROPERTIES FITTED TO 20000.K

[...]
 HCN             0.00001   *H2             0.01079   H2O             0.08923
 NH3             0.00001   *N2             0.53039   *OH             0.00003

  * THERMODYNAMIC PROPERTIES FITTED TO 20000.K

 NOTE. WEIGHT FRACTION OF FUEL IN TOTAL FUELS AND OF OXIDANT IN TOTAL OXIDANTS

           THEORETICAL ROCKET PERFORMANCE ASSUMING FROZEN COMPOSITION

 Pin =   558.4 PSIA
 CASE = _______________

             REACTANT                    WT FRACTION      ENERGY      TEMP
                                          (SEE NOTE)     KJ/KG-MOL      K  
 FUEL        paraffin                     1.0000000  -1860600.000    298.150
 OXIDANT     N2O                          1.0000000         0.000      0.000

 O/F=    5.00000  %FUEL= 16.666667  R,EQ.RATIO= 1.827705  PHI,EQ.RATIO= 1.827705

                 CHAMBER   THROAT     EXIT
 Pinf/P            1.0000   1.8176   27.607
 P, BAR            38.504   21.184   1.3947
 T, K             2176.86  1915.80  1034.35
 RHO, KG/CU M    5.1385 0 3.2124 0 3.9173-1
 H, KJ/KG         -309.55  -729.92 -2076.39
 U, KJ/KG        -1058.87 -1389.38 -2432.43
 G, KJ/KG        -21382.7 -19275.8 -12089.4
 S, KJ/(KG)(K)     9.6805   9.6805   9.6805

 M, (1/n)          24.155   24.155   24.155
 MW, MOL WT        24.155   24.155   24.155
 Cp, KJ/(KG)(K)    1.6231   1.5963   1.4366
 GAMMAs            1.2691   1.2749   1.3151
 SON VEL,M/SEC      975.2    916.9    684.3
 MACH NUMBER        0.000    1.000    2.747

 PERFORMANCE PARAMETERS

 Ae/At                      1.0000   4.0000
 CSTAR, M/SEC               1307.2   1307.2
 CF                         0.7014   1.4380
 Ivac, M/SEC                1636.1   2069.2
 Isp, M/SEC                  916.9   1879.8

 MASS FRACTIONS

 *CO             0.28881   *CO2            0.08072   *H              0.00001
 HCN             0.00001   *H2             0.01079   H2O             0.08923
 NH3             0.00001   *N2             0.53039   *OH             0.00003

  * THERMODYNAMIC PROPERTIES FITTED TO 20000.K

 NOTE. WEIGHT FRACTION OF FUEL IN TOTAL FUELS AND OF OXIDANT IN TOTAL OXIDANTS

           THEORETICAL ROCKET PERFORMANCE ASSUMING FROZEN COMPOSITION

 Pin =   573.1 PSIA
 CASE = _______________

             REACTANT                    WT FRACTION      ENERGY      TEMP
                                          (SEE NOTE)     KJ/KG-MOL      K  
 FUEL        paraffin                     1.0000000  -1860600.000    298.150
 OXIDANT     N2O                          1.0000000         0.000      0.000

 O/F=    5.00000  %FUEL= 16.666667  R,EQ.RATIO= 1.827705  PHI,EQ.RATIO= 1.827705

                 CHAMBER   THROAT     EXIT
 Pinf/P            1.0000   1.8176   27.606
 P, BAR            39.517   21.742   1.4314
 T, K             2176.89  1915.82  1034.37
 RHO, KG/CU M    5.2736 0 3.2969 0 4.0203-1
 H, KJ/KG         -309.55  -729.93 -2076.41
 U, KJ/KG        -1058.88 -1389.39 -2432.46
 G, KJ/KG        -21363.5 -19258.9 -12080.4
 S, KJ/(KG)(K)     9.6716   9.6716   9.6716

 M, (1/n)          24.155   24.155   24.155
 MW, MOL WT        24.155   24.155   24.155
 Cp, KJ/(KG)(K)    1.6231   1.5963   1.4366
 GAMMAs            1.2691   1.2749   1.3151
 SON VEL,M/SEC      975.2    916.9    684.3
 MACH NUMBER        0.000    1.000    2.747

 PERFORMANCE PARAMETERS

 Ae/At                      1.0000   4.0000
 CSTAR, M/SEC               1307.2   1307.2
 CF                         0.7014   1.4380
 Ivac, M/SEC                1636.1   2069.2
 Isp, M/SEC                  916.9   1879.8

 MASS FRACTIONS

 *CO             0.28881   *CO2            0.08071   *H              0.00001
 HCN             0.00001   *H2             0.01079   H2O             0.08923
 NH3             0.00001   *N2             0.53039   *OH             0.00003

  * THERMODYNAMIC PROPERTIES FITTED TO 20000.K

 NOTE. WEIGHT FRACTION OF FUEL IN TOTAL FUELS AND OF OXIDANT IN TOTAL OXIDANTS

           THEORETICAL ROCKET PERFORMANCE ASSUMING FROZEN COMPOSITION

 Pin =   587.8 PSIA
 CASE = _______________

             REACTANT                    WT FRACTION      ENERGY      TEMP
                                          (SEE NOTE)     KJ/KG-MOL      K  
 FUEL        paraffin                     1.0000000  -1860600.000    298.150
 OXIDANT     N2O                          1.0000000         0.000      0.000

 O/F=    5.00000  %FUEL= 16.666667  R,EQ.RATIO= 1.827705  PHI,EQ.RATIO= 1.827705

                 CHAMBER   THROAT     EXIT
 Pinf/P            1.0000   1.8176   27.606
 P, BAR            40.530   22.299   1.4681
 T, K             2176.91  1915.85  1034.38
 RHO, KG/CU M    5.4088 0 3.3814 0 4.1234-1
 H, KJ/KG         -309.55  -729.93 -2076.42
 U, KJ/KG        -1058.89 -1389.40 -2432.48
 G, KJ/KG        -21344.7 -19242.5 -12071.5
 S, KJ/(KG)(K)     9.6629   9.6629   9.6629

 M, (1/n)          24.155   24.155   24.155
 MW, MOL WT        24.155   24.155   24.155
 Cp, KJ/(KG)(K)    1.6231   1.5963   1.4366
 GAMMAs            1.2691   1.2749   1.3151
 SON VEL,M/SEC      975.2    916.9    684.3
 MACH NUMBER        0.000    1.000    2.747

 PERFORMANCE PARAMETERS

 Ae/At                      1.0000   4.0000
 CSTAR, M/SEC               1307.2   1307.2
 CF                         0.7014   1.4380
 Ivac, M/SEC                1636.1   2069.2
 Isp, M/SEC                  916.9   1879.8

 MASS FRACTIONS

 *CO             0.28881   *CO2            0.08071   *H              0.00001
 HCN             0.00001   *H2             0.01079   H2O             0.08923
 NH3             0.00001   *N2             0.53039   *OH             0.00003

  * THERMODYNAMIC PROPERTIES FITTED TO 20000.K

 NOTE. WEIGHT FRACTION OF FUEL IN TOTAL FUELS AND OF OXIDANT IN TOTAL OXIDANTS

           THEORETICAL ROCKET PERFORMANCE ASSUMING FROZEN COMPOSITION

 Pin =   602.5 PSIA
 CASE = _______________

             REACTANT                    WT FRACTION      ENERGY      TEMP
                                          (SEE NOTE)     KJ/KG-MOL      K  
 FUEL        paraffin                     1.0000000  -1860600.000    298.150
 OXIDANT     N2O                          1.0000000         0.000      0.000

 O/F=    5.00000  %FUEL= 16.666667  R,EQ.RATIO= 1.827705  PHI,EQ.RATIO= 1.827705

                 CHAMBER   THROAT     EXIT
 Pinf/P            1.0000   1.8176   27.606
 P, BAR            41.543   22.857   1.5048
 T, K             2176.94  1915.87  1034.40
 RHO, KG/CU M    5.5440 0 3.4659 0 4.2264-1
 H, KJ/KG         -309.55  -729.93 -2076.44
 U, KJ/KG        -1058.89 -1389.41 -2432.50
 G, KJ/KG        -21326.5 -19226.4 -12062.9
 S, KJ/(KG)(K)     9.6544   9.6544   9.6544

 M, (1/n)          24.155   24.155   24.155
 MW, MOL WT        24.155   24.155   24.155
 Cp, KJ/(KG)(K)    1.6231   1.5963   1.4366
 GAMMAs            1.2691   1.2749   1.3151
 SON VEL,M/SEC      975.2    916.9    684.3
 MACH NUMBER        0.000    1.000    2.747

 PERFORMANCE PARAMETERS

 Ae/At                      1.0000   4.0000
 CSTAR, M/SEC               1307.2   1307.2
 CF                         0.7014   1.4380
 Ivac, M/SEC                1636.2   2069.2
 Isp, M/SEC                  916.9   1879.8

 MASS FRACTIONS

 *CO             0.28881   *CO2            0.08071   *H              0.00001
 HCN             0.00001   *H2             0.01079   H2O             0.08923
 NH3             0.00001   *N2             0.53039   *OH             0.00003

  * THERMODYNAMIC PROPERTIES FITTED TO 20000.K

 NOTE. WEIGHT FRACTION OF FUEL IN TOTAL FUELS AND OF OXIDANT IN TOTAL OXIDANTS

           THEORETICAL ROCKET PERFORMANCE ASSUMING FROZEN COMPOSITION

 Pin =   617.2 PSIA
 CASE = _______________

             REACTANT                    WT FRACTION      ENERGY      TEMP
                                          (SEE NOTE)     KJ/KG-MOL      K  
 FUEL        paraffin                     1.0000000  -1860600.000    298.150
 OXIDANT     N2O                          1.0000000         0.000      0.000

 O/F=    5.00000  %FUEL= 16.666667  R,EQ.RATIO= 1.827705  PHI,EQ.RATIO= 1.827705

                 CHAMBER   THROAT     EXIT
 Pinf/P            1.0000   1.8176   27.606
 P, BAR            42.556   23.414   1.5416
 T, K             2176.96  1915.89  1034.41
 RHO, KG/CU M    5.6792 0 3.5504 0 4.3295-1
 H, KJ/KG         -309.55  -729.94 -2076.45
 U, KJ/KG        -1058.90 -1389.42 -2432.52
 G, KJ/KG        -21308.6 -19210.7 -12054.5
 S, KJ/(KG)(K)     9.6461   9.6461   9.6461

 M, (1/n)          24.155   24.155   24.155
 MW, MOL WT        24.155   24.155   24.155
 Cp, KJ/(KG)(K)    1.6231   1.5963   1.4366
 GAMMAs            1.2691   1.2749   1.3151
 SON VEL,M/SEC      975.2    916.9    684.3
 MACH NUMBER        0.000    1.000    2.747

 PERFORMANCE PARAMETERS

 Ae/At                      1.0000   4.0000
 CSTAR, M/SEC               1307.2   1307.2
 CF                         0.7014   1.4380
 Ivac, M/SEC                1636.2   2069.3
 Isp, M/SEC                  916.9   1879.8

 MASS FRACTIONS

 *CO             0.28881   *CO2            0.08071   *H              0.00001
 HCN             0.00001   *H2             0.01079   H2O             0.08923
 NH3             0.00001   *N2             0.53038   *OH             0.00003

  * THERMODYNAMIC PROPERTIES FITTED TO 20000.K

 NOTE. WEIGHT FRACTION OF FUEL IN TOTAL FUELS AND OF OXIDANT IN TOTAL OXIDANTS

           THEORETICAL ROCKET PERFORMANCE ASSUMING FROZEN COMPOSITION

 Pin =   631.9 PSIA
 CASE = _______________

             REACTANT                    WT FRACTION      ENERGY      TEMP
                                          (SEE NOTE)     KJ/KG-MOL      K  
 FUEL        paraffin                     1.0000000  -1860600.000    298.150
 OXIDANT     N2O                          1.0000000         0.000      0.000

 O/F=    5.00000  %FUEL= 16.666667  R,EQ.RATIO= 1.827705  PHI,EQ.RATIO= 1.827705

                 CHAMBER   THROAT     EXIT
 Pinf/P            1.0000   1.8176   27.606
 P, BAR            43.570   23.972   1.5783
 T, K             2176.98  1915.91  1034.43
 RHO, KG/CU M    5.8143 0 3.6349 0 4.4325-1
 H, KJ/KG         -309.55  -729.94 -2076.47
 U, KJ/KG        -1058.90 -1389.43 -2432.54
 G, KJ/KG        -21291.2 -19195.4 -12046.2
 S, KJ/(KG)(K)     9.6380   9.6380   9.6380

 M, (1/n)          24.155   24.155   24.155
 MW, MOL WT        24.155   24.155   24.155
 Cp, KJ/(KG)(K)    1.6232   1.5963   1.4366
 GAMMAs            1.2691   1.2749   1.3151
 SON VEL,M/SEC      975.2    916.9    684.3
 MACH NUMBER        0.000    1.000    2.747

 PERFORMANCE PARAMETERS

 Ae/At                      1.0000   4.0000
 CSTAR, M/SEC               1307.2   1307.2
 CF                         0.7014   1.4380
 Ivac, M/SEC                1636.2   2069.3
 Isp, M/SEC                  916.9   1879.8

 MASS FRACTIONS

 *CO             0.28881   *CO2            0.08071   *H              0.00001
 HCN             0.00001   *H2             0.01079   H2O             0.08923
 NH3             0.00001   *N2             0.53038   *OH             0.00003

  * THERMODYNAMIC PROPERTIES FITTED TO 20000.K

 NOTE. WEIGHT FRACTION OF FUEL IN TOTAL FUELS AND OF OXIDANT IN TOTAL OXIDANTS

           THEORETICAL ROCKET PERFORMANCE ASSUMING FROZEN COMPOSITION

 Pin =   646.6 PSIA
 CASE = _______________

             REACTANT                    WT FRACTION      ENERGY      TEMP
                                          (SEE NOTE)     KJ/KG-MOL      K  
 FUEL        paraffin                     1.0000000  -1860600.000    298.150
 OXIDANT     N2O                          1.0000000         0.000      0.000

 O/F=    5.00000  %FUEL= 16.666667  R,EQ.RATIO= 1.827705  PHI,EQ.RATIO= 1.827705

                 CHAMBER   THROAT     EXIT
 Pinf/P            1.0000   1.8176   27.606
 P, BAR            44.583   24.529   1.6150
 T, K             2177.00  1915.93  1034.44
 RHO, KG/CU M    5.9495 0 3.7194 0 4.5356-1
 H, KJ/KG         -309.55  -729.94 -2076.48
 U, KJ/KG        -1058.91 -1389.43 -2432.55
 G, KJ/KG        -21274.2 -19180.4 -12038.2
 S, KJ/(KG)(K)     9.6300   9.6300   9.6300

 M, (1/n)          24.155   24.155   24.155
 MW, MOL WT        24.155   24.155   24.155
 Cp, KJ/(KG)(K)    1.6232   1.5963   1.4366
 GAMMAs            1.2691   1.2749   1.3151
 SON VEL,M/SEC      975.2    916.9    684.3
 MACH NUMBER        0.000    1.000    2.747

 PERFORMANCE PARAMETERS

 Ae/At                      1.0000   4.0000
 CSTAR, M/SEC               1307.2   1307.2
 CF                         0.7014   1.4380
 Ivac, M/SEC                1636.2   2069.3
 Isp, M/SEC                  916.9   1879.9

 MASS FRACTIONS

 *CO             0.28881   *CO2            0.08071   *H              0.00001
 HCN             0.00001   *H2             0.01079   H2O             0.08923
 NH3             0.00002   *N2             0.53038   *OH             0.00003

  * THERMODYNAMIC PROPERTIES FITTED TO 20000.K

 NOTE. WEIGHT FRACTION OF FUEL IN TOTAL FUELS AND OF OXIDANT IN TOTAL OXIDANTS

           THEORETICAL ROCKET PERFORMANCE ASSUMING FROZEN COMPOSITION

 Pin =   661.3 PSIA
 CASE = _______________

             REACTANT                    WT FRACTION      ENERGY      TEMP
                                          (SEE NOTE)     KJ/KG-MOL      K  
 FUEL        paraffin                     1.0000000  -1860600.000    298.150
 OXIDANT     N2O                          1.0000000         0.000      0.000

 O/F=    5.00000  %FUEL= 16.666667  R,EQ.RATIO= 1.827705  PHI,EQ.RATIO= 1.827705

                 CHAMBER   THROAT     EXIT
 Pinf/P            1.0000   1.8175   27.606
 P, BAR            45.596   25.087   1.6517
 T, K             2177.02  1915.95  1034.46
 RHO, KG/CU M    6.0847 0 3.8039 0 4.6386-1
 H, KJ/KG         -309.55  -729.95 -2076.50
 U, KJ/KG        -1058.92 -1389.44 -2432.57
 G, KJ/KG        -21257.6 -19165.8 -12030.3
 S, KJ/(KG)(K)     9.6223   9.6223   9.6223

 M, (1/n)          24.155   24.155   24.155
 MW, MOL WT        24.155   24.155   24.155
 Cp, KJ/(KG)(K)    1.6232   1.5963   1.4366
 GAMMAs            1.2691   1.2749   1.3151
 SON VEL,M/SEC      975.2    917.0    684.3
 MACH NUMBER        0.000    1.000    2.747

 PERFORMANCE PARAMETERS

 Ae/At                      1.0000   4.0000
 CSTAR, M/SEC               1307.2   1307.2
 CF                         0.7014   1.4380
 Ivac, M/SEC                1636.2   2069.3
 Isp, M/SEC                  916.9   1879.9

 MASS FRACTIONS

 *CO             0.28881   *CO2            0.08071   *H              0.00001
 HCN             0.00001   *H2             0.01079   H2O             0.08924
 NH3             0.00002   *N2             0.53038   *OH             0.00003

  * THERMODYNAMIC PROPERTIES FITTED TO 20000.K

 NOTE. WEIGHT FRACTION OF FUEL IN TOTAL FUELS AND OF OXIDANT IN TOTAL OXIDANTS

           THEORETICAL ROCKET PERFORMANCE ASSUMING FROZEN COMPOSITION

 Pin =   676.0 PSIA
 CASE = _______________

             REACTANT                    WT FRACTION      ENERGY      TEMP
                                          (SEE NOTE)     KJ/KG-MOL      K  
 FUEL        paraffin                     1.0000000  -1860600.000    298.150
 OXIDANT     N2O                          1.0000000         0.000      0.000

 O/F=    5.00000  %FUEL= 16.666667  R,EQ.RATIO= 1.827705  PHI,EQ.RATIO= 1.827705

                 CHAMBER   THROAT     EXIT
 Pinf/P            1.0000   1.8175   27.606
 P, BAR            46.609   25.644   1.6884
 T, K             2177.04  1915.97  1034.47
 RHO, KG/CU M    6.2198 0 3.8884 0 4.7416-1
 H, KJ/KG         -309.55  -729.95 -2076.51
 U, KJ/KG        -1058.92 -1389.45 -2432.59
 G, KJ/KG        -21241.3 -19151.5 -12022.7
 S, KJ/(KG)(K)     9.6147   9.6147   9.6147

 M, (1/n)          24.155   24.155   24.155
 MW, MOL WT        24.155   24.155   24.155
 Cp, KJ/(KG)(K)    1.6232   1.5963   1.4366
 GAMMAs            1.2691   1.2749   1.3151
 SON VEL,M/SEC      975.2    917.0    684.3
 MACH NUMBER        0.000    1.000    2.747

 PERFORMANCE PARAMETERS

 Ae/At                      1.0000   4.0000
 CSTAR, M/SEC               1307.2   1307.2
 CF                         0.7014   1.4380
 Ivac, M/SEC                1636.2   2069.3
 Isp, M/SEC                  916.9   1879.9

 MASS FRACTIONS

 *CO             0.28881   *CO2            0.08071   *H              0.00001
 HCN             0.00001   *H2             0.01079   H2O             0.08924
 NH3             0.00002   *N2             0.53038   *OH             0.00003

  * THERMODYNAMIC PROPERTIES FITTED TO 20000.K

 NOTE. WEIGHT FRACTION OF FUEL IN TOTAL FUELS AND OF OXIDANT IN TOTAL OXIDANTS

           THEORETICAL ROCKET PERFORMANCE ASSUMING FROZEN COMPOSITION

 Pin =   690.7 PSIA
 CASE = _______________

             REACTANT                    WT FRACTION      ENERGY      TEMP
                                          (SEE NOTE)     KJ/KG-MOL      K  
 FUEL        paraffin                     1.0000000  -1860600.000    298.150
 OXIDANT     N2O                          1.0000000         0.000      0.000

 O/F=    5.00000  %FUEL= 16.666667  R,EQ.RATIO= 1.827705  PHI,EQ.RATIO= 1.827705

                 CHAMBER   THROAT     EXIT
 Pinf/P            1.0000   1.8175   27.606
 P, BAR            47.623   26.202   1.7251
 T, K             2177.06  1915.99  1034.48
 RHO, KG/CU M    6.3550 0 3.9729 0 4.8447-1
 H, KJ/KG         -309.55  -729.95 -2076.52
 U, KJ/KG        -1058.93 -1389.46 -2432.60
 G, KJ/KG        -21225.4 -19137.5 -12015.1
 S, KJ/(KG)(K)     9.6073   9.6073   9.6073

 M, (1/n)          24.155   24.155   24.155
 MW, MOL WT        24.155   24.155   24.155
 Cp, KJ/(KG)(K)    1.6232   1.5963   1.4366
 GAMMAs            1.2691   1.2749   1.3151
 SON VEL,M/SEC      975.2    917.0    684.3
 MACH NUMBER        0.000    1.000    2.747

 PERFORMANCE PARAMETERS

 Ae/At                      1.0000   4.0000
 CSTAR, M/SEC               1307.3   1307.3
 CF                         0.7014   1.4380
 Ivac, M/SEC                1636.2   2069.3
 Isp, M/SEC                  916.9   1879.9

 MASS FRACTIONS

 *CO             0.28881   *CO2            0.08071   *H              0.00001
 HCN             0.00001   *H2             0.01079   H2O             0.08924
 NH3             0.00002   *N2             0.53038   *OH             0.00003

  * THERMODYNAMIC PROPERTIES FITTED TO 20000.K

 NOTE. WEIGHT FRACTION OF FUEL IN TOTAL FUELS AND OF OXIDANT IN TOTAL OXIDANTS

           THEORETICAL ROCKET PERFORMANCE ASSUMING FROZEN COMPOSITION

 Pin =   705.4 PSIA
 CASE = _______________

             REACTANT                    WT FRACTION      ENERGY      TEMP
                                          (SEE NOTE)     KJ/KG-MOL      K  
 FUEL        paraffin                     1.0000000  -1860600.000    298.150
 OXIDANT     N2O                          1.0000000         0.000      0.000

 O/F=    5.00000  %FUEL= 16.666667  R,EQ.RATIO= 1.827705  PHI,EQ.RATIO= 1.827705

                 CHAMBER   THROAT     EXIT
 Pinf/P            1.0000   1.8175   27.606
 P, BAR            48.636   26.759   1.7618
 T, K             2177.08  1916.00  1034.49
 RHO, KG/CU M    6.4902 0 4.0574 0 4.9477-1
 H, KJ/KG         -309.55  -729.95 -2076.54
 U, KJ/KG        -1058.93 -1389.46 -2432.62
 G, KJ/KG        -21209.8 -19123.8 -12007.8
 S, KJ/(KG)(K)     9.6001   9.6001   9.6001

 M, (1/n)          24.155   24.155   24.155
 MW, MOL WT        24.155   24.155   24.155
 Cp, KJ/(KG)(K)    1.6232   1.5963   1.4366
 GAMMAs            1.2691   1.2749   1.3151
 SON VEL,M/SEC      975.2    917.0    684.3
 MACH NUMBER        0.000    1.000    2.747

 PERFORMANCE PARAMETERS

 Ae/At                      1.0000   4.0000
 CSTAR, M/SEC               1307.3   1307.3
 CF                         0.7014   1.4380
 Ivac, M/SEC                1636.2   2069.3
 Isp, M/SEC                  917.0   1879.9

 MASS FRACTIONS

 *CO             0.28881   *CO2            0.08071   *H              0.00001
 HCN             0.00001   *H2             0.01079   H2O             0.08924
 NH3             0.00002   *N2             0.53038   *OH             0.00003

  * THERMODYNAMIC PROPERTIES FITTED TO 20000.K

 NOTE. WEIGHT FRACTION OF FUEL IN TOTAL FUELS AND OF OXIDANT IN TOTAL OXIDANTS