         NASA-GLENN CHEMICAL EQUILIBRIUM PROGRAM CEA2, FEBRUARY 5, 2004
                   BY  BONNIE MCBRIDE AND SANFORD GORDON
      REFS: NASA RP-1311, PART I, 1994 AND NASA RP-1311, PART II, 1996

 *******************************************************************************

  
 ### CEA analysis performed on Tue 12-Oct-2021 14:55:17
  
 # Problem Type: "Rocket" (Infinite Area Combustor)
  
 prob case=_______________3583 ro frozen
  
 # Pressure (24 values):
 p,atm= 25, 26, 27, 28, 29, 30, 31, 32, 33, 34, 35, 36, 37, 38, 39, 40, 41, 42, 4
 3, 44, 45, 46, 47, 48
 # Supersonic Area Ratio (1 value):
 supar= 4
  
 # Oxidizer/Fuel Wt. ratio (31 values):
 o/f= 12.3, 12.5, 12.7, 12.9, 13.1, 13.3, 13.5, 13.7, 13.9, 14.1, 14.3, 14.5, 14.
 7, 14.9, 15.1, 15.3, 15.5, 15.7, 15.9, 16.1, 16.3, 1
  
 # You selected the following fuels and oxidizers:
 reac
 fuel paraffin          wt%=100.0000
 oxid N2O               wt%=100.0000
  
 # You selected these options for output:
 # short version of output
 output short
 # Proportions of any products will be expressed as Mass Fractions.
 output massf
 # Heat will be expressed as siunits
 output siunits
  
 # Input prepared by this script:/var/www/sites/cearun.grc.nasa.gov/cgi-bin/CEARU
 N/prepareInputFile.cgi
  
 ### IMPORTANT:  The following line is the end of your CEA input file!
 end

           THEORETICAL ROCKET PERFORMANCE ASSUMING FROZEN COMPOSITION

 Pin =   367.4 PSIA
 CASE = _______________

             REACTANT                    WT FRACTION      ENERGY      TEMP
                                          (SEE NOTE)     KJ/KG-MOL      K  
 FUEL        paraffin                     1.0000000  -1860600.000    298.150
 OXIDANT     N2O                          1.0000000         0.000      0.000

 O/F=   12.30000  %FUEL=  7.518797  R,EQ.RATIO= 0.742970  PHI,EQ.RATIO= 0.742970

                 CHAMBER   THROAT     EXIT
 Pinf/P            1.0000   1.7976   25.546
 P, BAR            25.331   14.091  0.99159
 T, K             2557.59  2282.65  1335.12
 RHO, KG/CU M    3.4996 0 2.1812 0 2.6242-1
 H, KJ/KG         -139.65  -540.96 -1872.51
 U, KJ/KG         -863.49 -1186.98 -2250.37
 G, KJ/KG        -22555.6 -20547.1 -13574.1
 S, KJ/(KG)(K)     8.7645   8.7645   8.7645

 M, (1/n)          29.378   29.378   29.378
 Cp, KJ/(KG)(K)    1.4679   1.4506   1.3434
 GAMMAs            1.2389   1.2424   1.2669
 SON VEL,M/SEC      947.0    895.9    691.9
 MACH NUMBER        0.000    1.000    2.691

 PERFORMANCE PARAMETERS

 Ae/At                      1.0000   4.0000
 CSTAR, M/SEC               1296.3   1296.3
 CF                         0.6911   1.4361
 Ivac, M/SEC                1617.0   2064.6
 Isp, M/SEC                  895.9   1861.6

 MASS FRACTIONS

 *CO             0.00538   *CO2            0.23268   *H              0.00001
 HO2             0.00002   *H2             0.00005   H2O             0.08101
 *NO             0.01351   NO2             0.00005   *N2             0.58230
 N2O             0.00001   *O              0.00056   *OH             0.00433
 *O2             0.08008

  * THERMODYNAMIC PROPERTIES FITTED TO 20000.K

 NOTE. WEIGHT FRACTION OF FUEL IN TOTAL FUELS AND OF OXIDANT IN TOTAL OXIDANTS

           THEORETICAL ROCKET PERFORMANCE ASSUMING FROZEN COMPOSITION

 Pin =   382.1 PSIA
 CASE = _______________

             REACTANT                    WT FRACTION      ENERGY      TEMP
                                          (SEE NOTE)     KJ/KG-MOL      K  
 FUEL        paraffin                     1.0000000  -1860600.000    298.150
 OXIDANT     N2O                          1.0000000         0.000      0.000

 O/F=   12.30000  %FUEL=  7.518797  R,EQ.RATIO= 0.742970  PHI,EQ.RATIO= 0.742970

                 CHAMBER   THROAT     EXIT
 Pinf/P            1.0000   1.7976   25.544
 P, BAR            26.345   14.655   1.0313
 T, K             2558.47  2283.46  1335.71
 RHO, KG/CU M    3.6386 0 2.2679 0 2.7284-1
 H, KJ/KG         -139.65  -541.06 -1873.01
 U, KJ/KG         -863.69 -1187.27 -2251.01
 G, KJ/KG        -22534.8 -20529.1 -13565.0
 S, KJ/(KG)(K)     8.7534   8.7534   8.7534

 M, (1/n)          29.380   29.380   29.380
 Cp, KJ/(KG)(K)    1.4680   1.4507   1.3435
 GAMMAs            1.2388   1.2424   1.2668
 SON VEL,M/SEC      947.1    896.0    692.0
 MACH NUMBER        0.000    1.000    2.691

 PERFORMANCE PARAMETERS

 Ae/At                      1.0000   4.0000
 CSTAR, M/SEC               1296.5   1296.5
 CF                         0.6911   1.4361
 Ivac, M/SEC                1617.2   2064.9
 Isp, M/SEC                  896.0   1861.9

 MASS FRACTIONS

 *CO             0.00530   *CO2            0.23280   *H              0.00001
 HO2             0.00002   *H2             0.00005   H2O             0.08104
 *NO             0.01352   NO2             0.00005   *N2             0.58229
 N2O             0.00001   *O              0.00055   *OH             0.00430
 *O2             0.08005

  * THERMODYNAMIC PROPERTIES FITTED TO 20000.K

 NOTE. WEIGHT FRACTION OF FUEL IN TOTAL FUELS AND OF OXIDANT IN TOTAL OXIDANTS

           THEORETICAL ROCKET PERFORMANCE ASSUMING FROZEN COMPOSITION

 Pin =   396.8 PSIA
 CASE = _______________

             REACTANT                    WT FRACTION      ENERGY      TEMP
                                          (SEE NOTE)     KJ/KG-MOL      K  
 FUEL        paraffin                     1.0000000  -1860600.000    298.150
 OXIDANT     N2O                          1.0000000         0.000      0.000

 O/F=   12.30000  %FUEL=  7.518797  R,EQ.RATIO= 0.742970  PHI,EQ.RATIO= 0.742970

                 CHAMBER   THROAT     EXIT
 Pinf/P            1.0000   1.7976   25.542
 P, BAR            27.358   15.219   1.0711
 T, K             2559.30  2284.24  1336.28
 RHO, KG/CU M    3.7775 0 2.3545 0 2.8326-1
 H, KJ/KG         -139.65  -541.16 -1873.49
 U, KJ/KG         -863.87 -1187.55 -2251.63
 G, KJ/KG        -22514.8 -20511.6 -13556.2
 S, KJ/(KG)(K)     8.7427   8.7427   8.7427

 M, (1/n)          29.382   29.382   29.382
 Cp, KJ/(KG)(K)    1.4681   1.4508   1.3437
 GAMMAs            1.2388   1.2423   1.2668
 SON VEL,M/SEC      947.2    896.1    692.1
 MACH NUMBER        0.000    1.000    2.691

 PERFORMANCE PARAMETERS

 Ae/At                      1.0000   4.0000
 CSTAR, M/SEC               1296.6   1296.6
 CF                         0.6911   1.4361
 Ivac, M/SEC                1617.4   2065.2
 Isp, M/SEC                  896.1   1862.2

 MASS FRACTIONS

 *CO             0.00523   *CO2            0.23292   *H              0.00001
 HO2             0.00002   *H2             0.00005   H2O             0.08106
 *NO             0.01354   NO2             0.00005   *N2             0.58229
 N2O             0.00001   *O              0.00054   *OH             0.00427
 *O2             0.08001

  * THERMODYNAMIC PROPERTIES FITTED TO 20000.K

 NOTE. WEIGHT FRACTION OF FUEL IN TOTAL FUELS AND OF OXIDANT IN TOTAL OXIDANTS

           THEORETICAL ROCKET PERFORMANCE ASSUMING FROZEN COMPOSITION

 Pin =   411.5 PSIA
 CASE = _______________

             REACTANT                    WT FRACTION      ENERGY      TEMP
                                          (SEE NOTE)     KJ/KG-MOL      K  
 FUEL        paraffin                     1.0000000  -1860600.000    298.150
 OXIDANT     N2O                          1.0000000         0.000      0.000

 O/F=   12.30000  %FUEL=  7.518797  R,EQ.RATIO= 0.742970  PHI,EQ.RATIO= 0.742970

                 CHAMBER   THROAT     EXIT
 Pinf/P            1.0000   1.7976   25.540
 P, BAR            28.371   15.783   1.1109
 T, K             2560.10  2284.99  1336.82
 RHO, KG/CU M    3.9165 0 2.4411 0 2.9367-1
 H, KJ/KG         -139.65  -541.25 -1873.94
 U, KJ/KG         -864.05 -1187.81 -2252.21
 G, KJ/KG        -22495.4 -20494.7 -13547.6
 S, KJ/(KG)(K)     8.7324   8.7324   8.7324

 M, (1/n)          29.384   29.384   29.384
 Cp, KJ/(KG)(K)    1.4681   1.4508   1.3438
 GAMMAs            1.2388   1.2423   1.2667
 SON VEL,M/SEC      947.3    896.2    692.2
 MACH NUMBER        0.000    1.000    2.691

 PERFORMANCE PARAMETERS

 Ae/At                      1.0000   4.0000
 CSTAR, M/SEC               1296.8   1296.8
 CF                         0.6911   1.4361
 Ivac, M/SEC                1617.6   2065.5
 Isp, M/SEC                  896.2   1862.4

 MASS FRACTIONS

 *CO             0.00516   *CO2            0.23303   *H              0.00001
 HO2             0.00002   *H2             0.00005   H2O             0.08108
 *NO             0.01355   NO2             0.00006   *N2             0.58228
 N2O             0.00001   *O              0.00054   *OH             0.00424
 *O2             0.07998

  * THERMODYNAMIC PROPERTIES FITTED TO 20000.K

 NOTE. WEIGHT FRACTION OF FUEL IN TOTAL FUELS AND OF OXIDANT IN TOTAL OXIDANTS

           THEORETICAL ROCKET PERFORMANCE ASSUMING FROZEN COMPOSITION

 Pin =   426.2 PSIA
 CASE = _______________

             REACTANT                    WT FRACTION      ENERGY      TEMP
                                          (SEE NOTE)     KJ/KG-MOL      K  
 FUEL        paraffin                     1.0000000  -1860600.000    298.150
 OXIDANT     N2O                          1.0000000         0.000      0.000

 O/F=   12.30000  %FUEL=  7.518797  R,EQ.RATIO= 0.742970  PHI,EQ.RATIO= 0.742970

                 CHAMBER   THROAT     EXIT
 Pinf/P            1.0000   1.7976   25.538
 P, BAR            29.384   16.347   1.1506
 T, K             2560.86  2285.70  1337.34
 RHO, KG/CU M    4.0554 0 2.5276 0 3.0408-1
 H, KJ/KG         -139.65  -541.34 -1874.38
 U, KJ/KG         -864.22 -1188.06 -2252.77
 G, KJ/KG        -22476.6 -20478.3 -13539.3
 S, KJ/(KG)(K)     8.7225   8.7225   8.7225

 M, (1/n)          29.386   29.386   29.386
 Cp, KJ/(KG)(K)    1.4682   1.4509   1.3439
 GAMMAs            1.2387   1.2423   1.2667
 SON VEL,M/SEC      947.4    896.3    692.3
 MACH NUMBER        0.000    1.000    2.690

 PERFORMANCE PARAMETERS

 Ae/At                      1.0000   4.0000
 CSTAR, M/SEC               1297.0   1297.0
 CF                         0.6911   1.4361
 Ivac, M/SEC                1617.8   2065.8
 Isp, M/SEC                  896.3   1862.6

 MASS FRACTIONS

 *CO             0.00509   *CO2            0.23313   *H              0.00001
 HO2             0.00002   *H2             0.00005   H2O             0.08111
 *NO             0.01357   NO2             0.00006   *N2             0.58227
 N2O             0.00001   *O              0.00053   *OH             0.00422
 *O2             0.07994

  * THERMODYNAMIC PROPERTIES FITTED TO 20000.K

 NOTE. WEIGHT FRACTION OF FUEL IN TOTAL FUELS AND OF OXIDANT IN TOTAL OXIDANTS

           THEORETICAL ROCKET PERFORMANCE ASSUMING FROZEN COMPOSITION

 Pin =   440.9 PSIA
 CASE = _______________

             REACTANT                    WT FRACTION      ENERGY      TEMP
                                          (SEE NOTE)     KJ/KG-MOL      K  
 FUEL        paraffin                     1.0000000  -1860600.000    298.150
 OXIDANT     N2O                          1.0000000         0.000      0.000

 O/F=   12.30000  %FUEL=  7.518797  R,EQ.RATIO= 0.742970  PHI,EQ.RATIO= 0.742970

                 CHAMBER   THROAT     EXIT
 Pinf/P            1.0000   1.7975   25.536
 P, BAR            30.398   16.911   1.1904
 T, K             2561.59  2286.38  1337.84
 RHO, KG/CU M    4.1943 0 2.6142 0 3.1449-1
 H, KJ/KG         -139.65  -541.43 -1874.79
 U, KJ/KG         -864.39 -1188.30 -2253.30
 G, KJ/KG        -22458.4 -20462.3 -13531.2
 S, KJ/(KG)(K)     8.7129   8.7129   8.7129

 M, (1/n)          29.388   29.388   29.388
 Cp, KJ/(KG)(K)    1.4682   1.4510   1.3439
 GAMMAs            1.2387   1.2422   1.2667
 SON VEL,M/SEC      947.5    896.4    692.4
 MACH NUMBER        0.000    1.000    2.690

 PERFORMANCE PARAMETERS

 Ae/At                      1.0000   4.0000
 CSTAR, M/SEC               1297.1   1297.1
 CF                         0.6911   1.4361
 Ivac, M/SEC                1618.0   2066.1
 Isp, M/SEC                  896.4   1862.9

 MASS FRACTIONS

 *CO             0.00503   *CO2            0.23323   *H              0.00001
 HO2             0.00002   *H2             0.00005   H2O             0.08113
 *NO             0.01358   NO2             0.00006   *N2             0.58227
 N2O             0.00001   *O              0.00052   *OH             0.00419
 *O2             0.07991

  * THERMODYNAMIC PROPERTIES FITTED TO 20000.K

 NOTE. WEIGHT FRACTION OF FUEL IN TOTAL FUELS AND OF OXIDANT IN TOTAL OXIDANTS

           THEORETICAL ROCKET PERFORMANCE ASSUMING FROZEN COMPOSITION

 Pin =   455.6 PSIA
 CASE = _______________

             REACTANT                    WT FRACTION      ENERGY      TEMP
                                          (SEE NOTE)     KJ/KG-MOL      K  
 FUEL        paraffin                     1.0000000  -1860600.000    298.150
 OXIDANT     N2O                          1.0000000         0.000      0.000

 O/F=   12.30000  %FUEL=  7.518797  R,EQ.RATIO= 0.742970  PHI,EQ.RATIO= 0.742970

                 CHAMBER   THROAT     EXIT
 Pinf/P            1.0000   1.7975   25.534
 P, BAR            31.411   17.475   1.2301
 T, K             2562.29  2287.03  1338.31
 RHO, KG/CU M    4.3332 0 2.7008 0 3.2490-1
 H, KJ/KG         -139.65  -541.51 -1875.19
 U, KJ/KG         -864.54 -1188.53 -2253.81
 G, KJ/KG        -22440.7 -20446.9 -13523.3
 S, KJ/(KG)(K)     8.7036   8.7036   8.7036

 M, (1/n)          29.389   29.389   29.389
 Cp, KJ/(KG)(K)    1.4683   1.4510   1.3440
 GAMMAs            1.2387   1.2422   1.2666
 SON VEL,M/SEC      947.6    896.5    692.5
 MACH NUMBER        0.000    1.000    2.690

 PERFORMANCE PARAMETERS

 Ae/At                      1.0000   4.0000
 CSTAR, M/SEC               1297.3   1297.3
 CF                         0.6911   1.4361
 Ivac, M/SEC                1618.2   2066.3
 Isp, M/SEC                  896.5   1863.1

 MASS FRACTIONS

 *CO             0.00496   *CO2            0.23333   *H              0.00001
 HO2             0.00002   *H2             0.00005   H2O             0.08115
 *NO             0.01359   NO2             0.00006   *N2             0.58226
 N2O             0.00001   *O              0.00051   *OH             0.00416
 *O2             0.07988

  * THERMODYNAMIC PROPERTIES FITTED TO 20000.K

 NOTE. WEIGHT FRACTION OF FUEL IN TOTAL FUELS AND OF OXIDANT IN TOTAL OXIDANTS

           THEORETICAL ROCKET PERFORMANCE ASSUMING FROZEN COMPOSITION

 Pin =   470.3 PSIA
 CASE = _______________

             REACTANT                    WT FRACTION      ENERGY      TEMP
                                          (SEE NOTE)     KJ/KG-MOL      K  
 FUEL        paraffin                     1.0000000  -1860600.000    298.150
 OXIDANT     N2O                          1.0000000         0.000      0.000

 O/F=   12.30000  %FUEL=  7.518797  R,EQ.RATIO= 0.742970  PHI,EQ.RATIO= 0.742970

                 CHAMBER   THROAT     EXIT
 Pinf/P            1.0000   1.7975   25.533
 P, BAR            32.424   18.038   1.2699
 T, K             2562.96  2287.66  1338.77
 RHO, KG/CU M    4.4720 0 2.7873 0 3.3530-1
 H, KJ/KG         -139.65  -541.59 -1875.57
 U, KJ/KG         -864.69 -1188.75 -2254.30
 G, KJ/KG        -22423.6 -20431.9 -13515.7
 S, KJ/(KG)(K)     8.6946   8.6946   8.6946

 M, (1/n)          29.391   29.391   29.391
 Cp, KJ/(KG)(K)    1.4683   1.4511   1.3441
 GAMMAs            1.2386   1.2422   1.2666
 SON VEL,M/SEC      947.7    896.6    692.6
 MACH NUMBER        0.000    1.000    2.690

 PERFORMANCE PARAMETERS

 Ae/At                      1.0000   4.0000
 CSTAR, M/SEC               1297.4   1297.4
 CF                         0.6911   1.4361
 Ivac, M/SEC                1618.4   2066.5
 Isp, M/SEC                  896.6   1863.3

 MASS FRACTIONS

 *CO             0.00491   *CO2            0.23342   *H              0.00001
 HO2             0.00002   *H2             0.00005   H2O             0.08116
 *NO             0.01361   NO2             0.00006   *N2             0.58225
 N2O             0.00001   *O              0.00051   *OH             0.00414
 *O2             0.07985

  * THERMODYNAMIC PROPERTIES FITTED TO 20000.K

 NOTE. WEIGHT FRACTION OF FUEL IN TOTAL FUELS AND OF OXIDANT IN TOTAL OXIDANTS

           THEORETICAL ROCKET PERFORMANCE ASSUMING FROZEN COMPOSITION

 Pin =   485.0 PSIA
 CASE = _______________

             REACTANT                    WT FRACTION      ENERGY      TEMP
                                          (SEE NOTE)     KJ/KG-MOL      K  
 FUEL        paraffin                     1.0000000  -1860600.000    298.150
 OXIDANT     N2O                          1.0000000         0.000      0.000

 O/F=   12.30000  %FUEL=  7.518797  R,EQ.RATIO= 0.742970  PHI,EQ.RATIO= 0.742970

                 CHAMBER   THROAT     EXIT
 Pinf/P            1.0000   1.7975   25.531
 P, BAR            33.437   18.602   1.3097
 T, K             2563.60  2288.26  1339.21
 RHO, KG/CU M    4.6108 0 2.8738 0 3.4571-1
 H, KJ/KG         -139.65  -541.67 -1875.94
 U, KJ/KG         -864.84 -1188.97 -2254.77
 G, KJ/KG        -22406.9 -20417.3 -13508.2
 S, KJ/(KG)(K)     8.6859   8.6859   8.6859

 M, (1/n)          29.392   29.392   29.392
 Cp, KJ/(KG)(K)    1.4684   1.4511   1.3442
 GAMMAs            1.2386   1.2421   1.2665
 SON VEL,M/SEC      947.8    896.7    692.7
 MACH NUMBER        0.000    1.000    2.690

 PERFORMANCE PARAMETERS

 Ae/At                      1.0000   4.0000
 CSTAR, M/SEC               1297.6   1297.6
 CF                         0.6910   1.4361
 Ivac, M/SEC                1618.6   2066.8
 Isp, M/SEC                  896.7   1863.5

 MASS FRACTIONS

 *CO             0.00485   *CO2            0.23351   *H              0.00001
 HO2             0.00002   *H2             0.00005   H2O             0.08118
 *NO             0.01362   NO2             0.00006   *N2             0.58225
 N2O             0.00001   *O              0.00050   *OH             0.00412
 *O2             0.07983

  * THERMODYNAMIC PROPERTIES FITTED TO 20000.K

 NOTE. WEIGHT FRACTION OF FUEL IN TOTAL FUELS AND OF OXIDANT IN TOTAL OXIDANTS

           THEORETICAL ROCKET PERFORMANCE ASSUMING FROZEN COMPOSITION

 Pin =   499.7 PSIA
 CASE = _______________

             REACTANT                    WT FRACTION      ENERGY      TEMP
                                          (SEE NOTE)     KJ/KG-MOL      K  
 FUEL        paraffin                     1.0000000  -1860600.000    298.150
 OXIDANT     N2O                          1.0000000         0.000      0.000

 O/F=   12.30000  %FUEL=  7.518797  R,EQ.RATIO= 0.742970  PHI,EQ.RATIO= 0.742970

                 CHAMBER   THROAT     EXIT
 Pinf/P            1.0000   1.7975   25.530
 P, BAR            34.450   19.166   1.3494
 T, K             2564.22  2288.84  1339.63
 RHO, KG/CU M    4.7496 0 2.9603 0 3.5611-1
 H, KJ/KG         -139.65  -541.74 -1876.29
 U, KJ/KG         -864.98 -1189.17 -2255.23
 G, KJ/KG        -22390.6 -20403.1 -13500.9
 S, KJ/(KG)(K)     8.6775   8.6775   8.6775

 M, (1/n)          29.394   29.394   29.394
 Cp, KJ/(KG)(K)    1.4684   1.4512   1.3443
 GAMMAs            1.2386   1.2421   1.2665
 SON VEL,M/SEC      947.8    896.8    692.8
 MACH NUMBER        0.000    1.000    2.690

 PERFORMANCE PARAMETERS

 Ae/At                      1.0000   4.0000
 CSTAR, M/SEC               1297.7   1297.7
 CF                         0.6910   1.4361
 Ivac, M/SEC                1618.7   2067.0
 Isp, M/SEC                  896.8   1863.7

 MASS FRACTIONS

 *CO             0.00479   *CO2            0.23360   *H              0.00001
 HO2             0.00002   *H2             0.00005   H2O             0.08120
 *NO             0.01363   NO2             0.00006   *N2             0.58224
 N2O             0.00001   *O              0.00050   *OH             0.00409
 *O2             0.07980

  * THERMODYNAMIC PROPERTIES FITTED TO 20000.K

 NOTE. WEIGHT FRACTION OF FUEL IN TOTAL FUELS AND OF OXIDANT IN TOTAL OXIDANTS

           THEORETICAL ROCKET PERFORMANCE ASSUMING FROZEN COMPOSITION

 Pin =   514.4 PSIA
 CASE = _______________

             REACTANT                    WT FRACTION      ENERGY      TEMP
                                          (SEE NOTE)     KJ/KG-MOL      K  
 FUEL        paraffin                     1.0000000  -1860600.000    298.150
 OXIDANT     N2O                          1.0000000         0.000      0.000

 O/F=   12.30000  %FUEL=  7.518797  R,EQ.RATIO= 0.742970  PHI,EQ.RATIO= 0.742970

                 CHAMBER   THROAT     EXIT
 Pinf/P            1.0000   1.7975   25.528
 P, BAR            35.464   19.730   1.3892
 T, K             2564.82  2289.40  1340.04
 RHO, KG/CU M    4.8884 0 3.0468 0 3.6651-1
 H, KJ/KG         -139.65  -541.81 -1876.64
 U, KJ/KG         -865.11 -1189.37 -2255.67
 G, KJ/KG        -22374.8 -20389.2 -13493.8
 S, KJ/(KG)(K)     8.6693   8.6693   8.6693

 M, (1/n)          29.395   29.395   29.395
 Cp, KJ/(KG)(K)    1.4685   1.4512   1.3444
 GAMMAs            1.2386   1.2421   1.2665
 SON VEL,M/SEC      947.9    896.8    692.8
 MACH NUMBER        0.000    1.000    2.690

 PERFORMANCE PARAMETERS

 Ae/At                     1.00000   4.0000
 CSTAR, M/SEC               1297.8   1297.8
 CF                         0.6910   1.4361
 Ivac, M/SEC                1618.9   2067.2
 Isp, M/SEC                  896.8   1863.9

 MASS FRACTIONS

 *CO             0.00474   *CO2            0.23368   HO2             0.00002
 *H2             0.00005   H2O             0.08122   *NO             0.01364
 NO2             0.00006   *N2             0.58223   N2O             0.00001
 *O              0.00049   *OH             0.00407   *O2             0.07977

  * THERMODYNAMIC PROPERTIES FITTED TO 20000.K

 NOTE. WEIGHT FRACTION OF FUEL IN TOTAL FUELS AND OF OXIDANT IN TOTAL OXIDANTS

           THEORETICAL ROCKET PERFORMANCE ASSUMING FROZEN COMPOSITION

 Pin =   529.1 PSIA
 CASE = _______________

             REACTANT                    WT FRACTION      ENERGY      TEMP
                                          (SEE NOTE)     KJ/KG-MOL      K  
 FUEL        paraffin                     1.0000000  -1860600.000    298.150
 OXIDANT     N2O                          1.0000000         0.000      0.000

 O/F=   12.30000  %FUEL=  7.518797  R,EQ.RATIO= 0.742970  PHI,EQ.RATIO= 0.742970

                 CHAMBER   THROAT     EXIT
 Pinf/P            1.0000   1.7974   25.527
 P, BAR            36.477   20.294   1.4290
 T, K             2565.40  2289.94  1340.43
 RHO, KG/CU M    5.0272 0 3.1333 0 3.7691-1
 H, KJ/KG         -139.65  -541.88 -1876.96
 U, KJ/KG         -865.24 -1189.56 -2256.09
 G, KJ/KG        -22359.3 -20375.7 -13486.9
 S, KJ/(KG)(K)     8.6613   8.6613   8.6613

 M, (1/n)          29.397   29.397   29.397
 Cp, KJ/(KG)(K)    1.4685   1.4513   1.3444
 GAMMAs            1.2385   1.2421   1.2664
 SON VEL,M/SEC      948.0    896.9    692.9
 MACH NUMBER        0.000    1.000    2.690

 PERFORMANCE PARAMETERS

 Ae/At                      1.0000   4.0000
 CSTAR, M/SEC               1298.0   1298.0
 CF                         0.6910   1.4361
 Ivac, M/SEC                1619.0   2067.4
 Isp, M/SEC                  896.9   1864.0

 MASS FRACTIONS

 *CO             0.00469   *CO2            0.23376   HO2             0.00003
 *H2             0.00004   H2O             0.08123   *NO             0.01365
 NO2             0.00006   *N2             0.58223   N2O             0.00001
 *O              0.00048   *OH             0.00405   *O2             0.07975

  * THERMODYNAMIC PROPERTIES FITTED TO 20000.K

 NOTE. WEIGHT FRACTION OF FUEL IN TOTAL FUELS AND OF OXIDANT IN TOTAL OXIDANTS

           THEORETICAL ROCKET PERFORMANCE ASSUMING FROZEN COMPOSITION

 Pin =   543.8 PSIA
 CASE = _______________

             REACTANT                    WT FRACTION      ENERGY      TEMP
                                          (SEE NOTE)     KJ/KG-MOL      K  
 FUEL        paraffin                     1.0000000  -1860600.000    298.150
 OXIDANT     N2O                          1.0000000         0.000      0.000

 O/F=   12.30000  %FUEL=  7.518797  R,EQ.RATIO= 0.742970  PHI,EQ.RATIO= 0.742970

                 CHAMBER   THROAT     EXIT
 Pinf/P            1.0000   1.7974   25.525
 P, BAR            37.490   20.858   1.4687
 T, K             2565.95  2290.46  1340.81
 RHO, KG/CU M    5.1660 0 3.2198 0 3.8731-1
 H, KJ/KG         -139.65  -541.94 -1877.28
 U, KJ/KG         -865.36 -1189.74 -2256.50
 G, KJ/KG        -22344.3 -20362.5 -13480.1
 S, KJ/(KG)(K)     8.6535   8.6535   8.6535

 M, (1/n)          29.398   29.398   29.398
 Cp, KJ/(KG)(K)    1.4685   1.4513   1.3445
 GAMMAs            1.2385   1.2420   1.2664
 SON VEL,M/SEC      948.1    897.0    693.0
 MACH NUMBER        0.000    1.000    2.690

 PERFORMANCE PARAMETERS

 Ae/At                      1.0000   4.0000
 CSTAR, M/SEC               1298.1   1298.1
 CF                         0.6910   1.4361
 Ivac, M/SEC                1619.2   2067.6
 Isp, M/SEC                  897.0   1864.2

 MASS FRACTIONS

 *CO             0.00464   *CO2            0.23384   HO2             0.00003
 *H2             0.00004   H2O             0.08125   *NO             0.01366
 NO2             0.00006   *N2             0.58222   N2O             0.00001
 *O              0.00048   *OH             0.00403   *O2             0.07973

  * THERMODYNAMIC PROPERTIES FITTED TO 20000.K

 NOTE. WEIGHT FRACTION OF FUEL IN TOTAL FUELS AND OF OXIDANT IN TOTAL OXIDANTS

           THEORETICAL ROCKET PERFORMANCE ASSUMING FROZEN COMPOSITION

 Pin =   558.4 PSIA
 CASE = _______________

             REACTANT                    WT FRACTION      ENERGY      TEMP
                                          (SEE NOTE)     KJ/KG-MOL      K  
 FUEL        paraffin                     1.0000000  -1860600.000    298.150
 OXIDANT     N2O                          1.0000000         0.000      0.000

 O/F=   12.30000  %FUEL=  7.518797  R,EQ.RATIO= 0.742970  PHI,EQ.RATIO= 0.742970

                 CHAMBER   THROAT     EXIT
 Pinf/P            1.0000   1.7974   25.524
 P, BAR            38.504   21.422   1.5085
 T, K             2566.49  2290.96  1341.18
 RHO, KG/CU M    5.3047 0 3.3063 0 3.9771-1
 H, KJ/KG         -139.65  -542.01 -1877.59
 U, KJ/KG         -865.48 -1189.92 -2256.89
 G, KJ/KG        -22329.6 -20349.6 -13473.4
 S, KJ/(KG)(K)     8.6460   8.6460   8.6460

 M, (1/n)          29.399   29.399   29.399
 Cp, KJ/(KG)(K)    1.4686   1.4514   1.3446
 GAMMAs            1.2385   1.2420   1.2664
 SON VEL,M/SEC      948.1    897.1    693.1
 MACH NUMBER        0.000    1.000    2.690

 PERFORMANCE PARAMETERS

 Ae/At                      1.0000   4.0000
 CSTAR, M/SEC               1298.2   1298.2
 CF                         0.6910   1.4361
 Ivac, M/SEC                1619.3   2067.8
 Isp, M/SEC                  897.1   1864.4

 MASS FRACTIONS

 *CO             0.00460   *CO2            0.23391   HO2             0.00003
 *H2             0.00004   H2O             0.08127   *NO             0.01367
 NO2             0.00006   *N2             0.58222   N2O             0.00001
 *O              0.00047   *OH             0.00401   *O2             0.07970

  * THERMODYNAMIC PROPERTIES FITTED TO 20000.K

 NOTE. WEIGHT FRACTION OF FUEL IN TOTAL FUELS AND OF OXIDANT IN TOTAL OXIDANTS

           THEORETICAL ROCKET PERFORMANCE ASSUMING FROZEN COMPOSITION

 Pin =   573.1 PSIA
 CASE = _______________

             REACTANT                    WT FRACTION      ENERGY      TEMP
                                          (SEE NOTE)     KJ/KG-MOL      K  
 FUEL        paraffin                     1.0000000  -1860600.000    298.150
 OXIDANT     N2O                          1.0000000         0.000      0.000

 O/F=   12.30000  %FUEL=  7.518797  R,EQ.RATIO= 0.742970  PHI,EQ.RATIO= 0.742970

                 CHAMBER   THROAT     EXIT
 Pinf/P            1.0000   1.7974   25.523
 P, BAR            39.517   21.986   1.5483
 T, K             2567.01  2291.44  1341.53
 RHO, KG/CU M    5.4434 0 3.3927 0 4.0811-1
 H, KJ/KG         -139.65  -542.07 -1877.88
 U, KJ/KG         -865.60 -1190.09 -2257.27
 G, KJ/KG        -22315.2 -20337.1 -13466.9
 S, KJ/(KG)(K)     8.6387   8.6387   8.6387

 M, (1/n)          29.401   29.401   29.401
 Cp, KJ/(KG)(K)    1.4686   1.4514   1.3447
 GAMMAs            1.2385   1.2420   1.2663
 SON VEL,M/SEC      948.2    897.1    693.1
 MACH NUMBER        0.000    1.000    2.690

 PERFORMANCE PARAMETERS

 Ae/At                      1.0000   4.0000
 CSTAR, M/SEC               1298.3   1298.3
 CF                         0.6910   1.4361
 Ivac, M/SEC                1619.5   2068.0
 Isp, M/SEC                  897.1   1864.5

 MASS FRACTIONS

 *CO             0.00455   *CO2            0.23398   HO2             0.00003
 *H2             0.00004   H2O             0.08128   *NO             0.01368
 NO2             0.00007   *N2             0.58221   N2O             0.00001
 *O              0.00047   *OH             0.00399   *O2             0.07968

  * THERMODYNAMIC PROPERTIES FITTED TO 20000.K

 NOTE. WEIGHT FRACTION OF FUEL IN TOTAL FUELS AND OF OXIDANT IN TOTAL OXIDANTS

           THEORETICAL ROCKET PERFORMANCE ASSUMING FROZEN COMPOSITION

 Pin =   587.8 PSIA
 CASE = _______________

             REACTANT                    WT FRACTION      ENERGY      TEMP
                                          (SEE NOTE)     KJ/KG-MOL      K  
 FUEL        paraffin                     1.0000000  -1860600.000    298.150
 OXIDANT     N2O                          1.0000000         0.000      0.000

 O/F=   12.30000  %FUEL=  7.518797  R,EQ.RATIO= 0.742970  PHI,EQ.RATIO= 0.742970

                 CHAMBER   THROAT     EXIT
 Pinf/P            1.0000   1.7974   25.521
 P, BAR            40.530   22.549   1.5881
 T, K             2567.52  2291.92  1341.88
 RHO, KG/CU M    5.5821 0 3.4792 0 4.1850-1
 H, KJ/KG         -139.65  -542.13 -1878.17
 U, KJ/KG         -865.71 -1190.26 -2257.64
 G, KJ/KG        -22301.2 -20324.8 -13460.6
 S, KJ/(KG)(K)     8.6315   8.6315   8.6315

 M, (1/n)          29.402   29.402   29.402
 Cp, KJ/(KG)(K)    1.4687   1.4514   1.3447
 GAMMAs            1.2385   1.2420   1.2663
 SON VEL,M/SEC      948.3    897.2    693.2
 MACH NUMBER        0.000    1.000    2.690

 PERFORMANCE PARAMETERS

 Ae/At                      1.0000   4.0000
 CSTAR, M/SEC               1298.4   1298.4
 CF                         0.6910   1.4361
 Ivac, M/SEC                1619.6   2068.2
 Isp, M/SEC                  897.2   1864.7

 MASS FRACTIONS

 *CO             0.00451   *CO2            0.23405   HO2             0.00003
 *H2             0.00004   H2O             0.08130   *NO             0.01369
 NO2             0.00007   *N2             0.58221   N2O             0.00001
 *O              0.00046   *OH             0.00397   *O2             0.07966

  * THERMODYNAMIC PROPERTIES FITTED TO 20000.K

 NOTE. WEIGHT FRACTION OF FUEL IN TOTAL FUELS AND OF OXIDANT IN TOTAL OXIDANTS

           THEORETICAL ROCKET PERFORMANCE ASSUMING FROZEN COMPOSITION

 Pin =   602.5 PSIA
 CASE = _______________

             REACTANT                    WT FRACTION      ENERGY      TEMP
                                          (SEE NOTE)     KJ/KG-MOL      K  
 FUEL        paraffin                     1.0000000  -1860600.000    298.150
 OXIDANT     N2O                          1.0000000         0.000      0.000

 O/F=   12.30000  %FUEL=  7.518797  R,EQ.RATIO= 0.742970  PHI,EQ.RATIO= 0.742970

                 CHAMBER   THROAT     EXIT
 Pinf/P            1.0000   1.7974   25.520
 P, BAR            41.543   23.113   1.6279
 T, K             2568.01  2292.37  1342.21
 RHO, KG/CU M    5.7208 0 3.5656 0 4.2889-1
 H, KJ/KG         -139.65  -542.19 -1878.45
 U, KJ/KG         -865.82 -1190.42 -2258.00
 G, KJ/KG        -22287.5 -20312.8 -13454.4
 S, KJ/(KG)(K)     8.6245   8.6245   8.6245

 M, (1/n)          29.403   29.403   29.403
 Cp, KJ/(KG)(K)    1.4687   1.4515   1.3448
 GAMMAs            1.2384   1.2420   1.2663
 SON VEL,M/SEC      948.3    897.3    693.3
 MACH NUMBER        0.000    1.000    2.690

 PERFORMANCE PARAMETERS

 Ae/At                      1.0000   4.0000
 CSTAR, M/SEC               1298.5   1298.5
 CF                         0.6910   1.4361
 Ivac, M/SEC                1619.7   2068.4
 Isp, M/SEC                  897.3   1864.8

 MASS FRACTIONS

 *CO             0.00446   *CO2            0.23412   HO2             0.00003
 *H2             0.00004   H2O             0.08131   *NO             0.01370
 NO2             0.00007   *N2             0.58220   N2O             0.00001
 *O              0.00046   *OH             0.00395   *O2             0.07964

  * THERMODYNAMIC PROPERTIES FITTED TO 20000.K

 NOTE. WEIGHT FRACTION OF FUEL IN TOTAL FUELS AND OF OXIDANT IN TOTAL OXIDANTS

           THEORETICAL ROCKET PERFORMANCE ASSUMING FROZEN COMPOSITION

 Pin =   617.2 PSIA
 CASE = _______________

             REACTANT                    WT FRACTION      ENERGY      TEMP
                                          (SEE NOTE)     KJ/KG-MOL      K  
 FUEL        paraffin                     1.0000000  -1860600.000    298.150
 OXIDANT     N2O                          1.0000000         0.000      0.000

 O/F=   12.30000  %FUEL=  7.518797  R,EQ.RATIO= 0.742970  PHI,EQ.RATIO= 0.742970

                 CHAMBER   THROAT     EXIT
 Pinf/P            1.0000   1.7974   25.519
 P, BAR            42.556   23.677   1.6676
 T, K             2568.48  2292.81  1342.53
 RHO, KG/CU M    5.8595 0 3.6520 0 4.3929-1
 H, KJ/KG         -139.65  -542.24 -1878.72
 U, KJ/KG         -865.93 -1190.57 -2258.34
 G, KJ/KG        -22274.0 -20301.0 -13448.3
 S, KJ/(KG)(K)     8.6177   8.6177   8.6177

 M, (1/n)          29.404   29.404   29.404
 Cp, KJ/(KG)(K)    1.4687   1.4515   1.3448
 GAMMAs            1.2384   1.2419   1.2662
 SON VEL,M/SEC      948.4    897.3    693.3
 MACH NUMBER        0.000    1.000    2.690

 PERFORMANCE PARAMETERS

 Ae/At                      1.0000   4.0000
 CSTAR, M/SEC               1298.6   1298.6
 CF                         0.6910   1.4361
 Ivac, M/SEC                1619.8   2068.5
 Isp, M/SEC                  897.3   1865.0

 MASS FRACTIONS

 *CO             0.00442   *CO2            0.23418   HO2             0.00003
 *H2             0.00004   H2O             0.08132   *NO             0.01371
 NO2             0.00007   *N2             0.58220   N2O             0.00001
 *O              0.00045   *OH             0.00393   *O2             0.07962

  * THERMODYNAMIC PROPERTIES FITTED TO 20000.K

 NOTE. WEIGHT FRACTION OF FUEL IN TOTAL FUELS AND OF OXIDANT IN TOTAL OXIDANTS

           THEORETICAL ROCKET PERFORMANCE ASSUMING FROZEN COMPOSITION

 Pin =   631.9 PSIA
 CASE = _______________

             REACTANT                    WT FRACTION      ENERGY      TEMP
                                          (SEE NOTE)     KJ/KG-MOL      K  
 FUEL        paraffin                     1.0000000  -1860600.000    298.150
 OXIDANT     N2O                          1.0000000         0.000      0.000

 O/F=   12.30000  %FUEL=  7.518797  R,EQ.RATIO= 0.742970  PHI,EQ.RATIO= 0.742970

                 CHAMBER   THROAT     EXIT
 Pinf/P            1.0000   1.7973   25.518
 P, BAR            43.570   24.241   1.7074
 T, K             2568.94  2293.24  1342.85
 RHO, KG/CU M    5.9982 0 3.7384 0 4.4968-1
 H, KJ/KG         -139.65  -542.30 -1878.98
 U, KJ/KG         -866.03 -1190.72 -2258.68
 G, KJ/KG        -22260.9 -20289.5 -13442.3
 S, KJ/(KG)(K)     8.6110   8.6110   8.6110

 M, (1/n)          29.405   29.405   29.405
 Cp, KJ/(KG)(K)    1.4688   1.4516   1.3449
 GAMMAs            1.2384   1.2419   1.2662
 SON VEL,M/SEC      948.5    897.4    693.4
 MACH NUMBER        0.000    1.000    2.690

 PERFORMANCE PARAMETERS

 Ae/At                      1.0000   4.0000
 CSTAR, M/SEC               1298.7   1298.7
 CF                         0.6910   1.4361
 Ivac, M/SEC                1620.0   2068.7
 Isp, M/SEC                  897.4   1865.1

 MASS FRACTIONS

 *CO             0.00438   *CO2            0.23425   HO2             0.00003
 *H2             0.00004   H2O             0.08134   *NO             0.01372
 NO2             0.00007   *N2             0.58220   N2O             0.00001
 *O              0.00045   *OH             0.00391   *O2             0.07960

  * THERMODYNAMIC PROPERTIES FITTED TO 20000.K

 NOTE. WEIGHT FRACTION OF FUEL IN TOTAL FUELS AND OF OXIDANT IN TOTAL OXIDANTS

           THEORETICAL ROCKET PERFORMANCE ASSUMING FROZEN COMPOSITION

 Pin =   646.6 PSIA
 CASE = _______________

             REACTANT                    WT FRACTION      ENERGY      TEMP
                                          (SEE NOTE)     KJ/KG-MOL      K  
 FUEL        paraffin                     1.0000000  -1860600.000    298.150
 OXIDANT     N2O                          1.0000000         0.000      0.000

 O/F=   12.30000  %FUEL=  7.518797  R,EQ.RATIO= 0.742970  PHI,EQ.RATIO= 0.742970

                 CHAMBER   THROAT     EXIT
 Pinf/P            1.0000   1.7973   25.517
 P, BAR            44.583   24.805   1.7472
 T, K             2569.38  2293.66  1343.15
 RHO, KG/CU M    6.1368 0 3.8249 0 4.6007-1
 H, KJ/KG         -139.65  -542.35 -1879.23
 U, KJ/KG         -866.13 -1190.87 -2259.00
 G, KJ/KG        -22248.0 -20278.2 -13436.4
 S, KJ/(KG)(K)     8.6045   8.6045   8.6045

 M, (1/n)          29.406   29.406   29.406
 Cp, KJ/(KG)(K)    1.4688   1.4516   1.3450
 GAMMAs            1.2384   1.2419   1.2662
 SON VEL,M/SEC      948.5    897.4    693.4
 MACH NUMBER        0.000    1.000    2.690

 PERFORMANCE PARAMETERS

 Ae/At                      1.0000   4.0000
 CSTAR, M/SEC               1298.8   1298.8
 CF                         0.6910   1.4361
 Ivac, M/SEC                1620.1   2068.9
 Isp, M/SEC                  897.4   1865.3

 MASS FRACTIONS

 *CO             0.00434   *CO2            0.23431   HO2             0.00003
 *H2             0.00004   H2O             0.08135   *NO             0.01373
 NO2             0.00007   *N2             0.58219   N2O             0.00001
 *O              0.00045   *OH             0.00390   *O2             0.07958

  * THERMODYNAMIC PROPERTIES FITTED TO 20000.K

 NOTE. WEIGHT FRACTION OF FUEL IN TOTAL FUELS AND OF OXIDANT IN TOTAL OXIDANTS

           THEORETICAL ROCKET PERFORMANCE ASSUMING FROZEN COMPOSITION

 Pin =   661.3 PSIA
 CASE = _______________

             REACTANT                    WT FRACTION      ENERGY      TEMP
                                          (SEE NOTE)     KJ/KG-MOL      K  
 FUEL        paraffin                     1.0000000  -1860600.000    298.150
 OXIDANT     N2O                          1.0000000         0.000      0.000

 O/F=   12.30000  %FUEL=  7.518797  R,EQ.RATIO= 0.742970  PHI,EQ.RATIO= 0.742970

                 CHAMBER   THROAT     EXIT
 Pinf/P            1.0000   1.7973   25.516
 P, BAR            45.596   25.369   1.7870
 T, K             2569.82  2294.06  1343.45
 RHO, KG/CU M    6.2755 0 3.9113 0 4.7046-1
 H, KJ/KG         -139.65  -542.40 -1879.48
 U, KJ/KG         -866.23 -1191.01 -2259.32
 G, KJ/KG        -22235.4 -20267.2 -13430.7
 S, KJ/(KG)(K)     8.5982   8.5982   8.5982

 M, (1/n)          29.407   29.407   29.407
 Cp, KJ/(KG)(K)    1.4688   1.4516   1.3450
 GAMMAs            1.2384   1.2419   1.2662
 SON VEL,M/SEC      948.6    897.5    693.5
 MACH NUMBER        0.000    1.000    2.690

 PERFORMANCE PARAMETERS

 Ae/At                      1.0000   4.0000
 CSTAR, M/SEC               1298.9   1298.9
 CF                         0.6910   1.4361
 Ivac, M/SEC                1620.2   2069.0
 Isp, M/SEC                  897.5   1865.4

 MASS FRACTIONS

 *CO             0.00431   *CO2            0.23437   HO2             0.00003
 *H2             0.00004   H2O             0.08136   *NO             0.01374
 NO2             0.00007   *N2             0.58219   N2O             0.00001
 *O              0.00044   *OH             0.00388   *O2             0.07956

  * THERMODYNAMIC PROPERTIES FITTED TO 20000.K

 NOTE. WEIGHT FRACTION OF FUEL IN TOTAL FUELS AND OF OXIDANT IN TOTAL OXIDANTS

           THEORETICAL ROCKET PERFORMANCE ASSUMING FROZEN COMPOSITION

 Pin =   676.0 PSIA
 CASE = _______________

             REACTANT                    WT FRACTION      ENERGY      TEMP
                                          (SEE NOTE)     KJ/KG-MOL      K  
 FUEL        paraffin                     1.0000000  -1860600.000    298.150
 OXIDANT     N2O                          1.0000000         0.000      0.000

 O/F=   12.30000  %FUEL=  7.518797  R,EQ.RATIO= 0.742970  PHI,EQ.RATIO= 0.742970

                 CHAMBER   THROAT     EXIT
 Pinf/P            1.0000   1.7973   25.515
 P, BAR            46.609   25.933   1.8268
 T, K             2570.24  2294.45  1343.73
 RHO, KG/CU M    6.4141 0 3.9976 0 4.8085-1
 H, KJ/KG         -139.65  -542.45 -1879.72
 U, KJ/KG         -866.32 -1191.15 -2259.63
 G, KJ/KG        -22223.1 -20256.4 -13425.0
 S, KJ/(KG)(K)     8.5920   8.5920   8.5920

 M, (1/n)          29.408   29.408   29.408
 Cp, KJ/(KG)(K)    1.4689   1.4517   1.3451
 GAMMAs            1.2384   1.2419   1.2661
 SON VEL,M/SEC      948.6    897.6    693.6
 MACH NUMBER        0.000    1.000    2.690

 PERFORMANCE PARAMETERS

 Ae/At                      1.0000   4.0000
 CSTAR, M/SEC               1299.0   1299.0
 CF                         0.6910   1.4361
 Ivac, M/SEC                1620.3   2069.2
 Isp, M/SEC                  897.6   1865.5

 MASS FRACTIONS

 *CO             0.00427   *CO2            0.23442   HO2             0.00003
 *H2             0.00004   H2O             0.08138   *NO             0.01375
 NO2             0.00007   *N2             0.58218   N2O             0.00001
 *O              0.00044   *OH             0.00386   *O2             0.07955

  * THERMODYNAMIC PROPERTIES FITTED TO 20000.K

 NOTE. WEIGHT FRACTION OF FUEL IN TOTAL FUELS AND OF OXIDANT IN TOTAL OXIDANTS

           THEORETICAL ROCKET PERFORMANCE ASSUMING FROZEN COMPOSITION

 Pin =   690.7 PSIA
 CASE = _______________

             REACTANT                    WT FRACTION      ENERGY      TEMP
                                          (SEE NOTE)     KJ/KG-MOL      K  
 FUEL        paraffin                     1.0000000  -1860600.000    298.150
 OXIDANT     N2O                          1.0000000         0.000      0.000

 O/F=   12.30000  %FUEL=  7.518797  R,EQ.RATIO= 0.742970  PHI,EQ.RATIO= 0.742970

                 CHAMBER   THROAT     EXIT
 Pinf/P            1.0000   1.7973   25.514
 P, BAR            47.623   26.497   1.8666
 T, K             2570.65  2294.84  1344.01
 RHO, KG/CU M    6.5527 0 4.0840 0 4.9123-1
 H, KJ/KG         -139.65  -542.50 -1879.95
 U, KJ/KG         -866.41 -1191.28 -2259.93
 G, KJ/KG        -22211.0 -20245.7 -13419.5
 S, KJ/(KG)(K)     8.5859   8.5859   8.5859

 M, (1/n)          29.409   29.409   29.409
 Cp, KJ/(KG)(K)    1.4689   1.4517   1.3451
 GAMMAs            1.2383   1.2418   1.2661
 SON VEL,M/SEC      948.7    897.6    693.6
 MACH NUMBER        0.000    1.000    2.690

 PERFORMANCE PARAMETERS

 Ae/At                      1.0000   4.0000
 CSTAR, M/SEC               1299.1   1299.1
 CF                         0.6909   1.4361
 Ivac, M/SEC                1620.4   2069.3
 Isp, M/SEC                  897.6   1865.6

 MASS FRACTIONS

 *CO             0.00423   *CO2            0.23448   HO2             0.00003
 *H2             0.00004   H2O             0.08139   *NO             0.01375
 NO2             0.00007   *N2             0.58218   N2O             0.00001
 *O              0.00043   *OH             0.00385   *O2             0.07953

  * THERMODYNAMIC PROPERTIES FITTED TO 20000.K

 NOTE. WEIGHT FRACTION OF FUEL IN TOTAL FUELS AND OF OXIDANT IN TOTAL OXIDANTS

           THEORETICAL ROCKET PERFORMANCE ASSUMING FROZEN COMPOSITION

 Pin =   705.4 PSIA
 CASE = _______________

             REACTANT                    WT FRACTION      ENERGY      TEMP
                                          (SEE NOTE)     KJ/KG-MOL      K  
 FUEL        paraffin                     1.0000000  -1860600.000    298.150
 OXIDANT     N2O                          1.0000000         0.000      0.000

 O/F=   12.30000  %FUEL=  7.518797  R,EQ.RATIO= 0.742970  PHI,EQ.RATIO= 0.742970

                 CHAMBER   THROAT     EXIT
 Pinf/P            1.0000   1.7973   25.513
 P, BAR            48.636   27.061   1.9063
 T, K             2571.04  2295.21  1344.28
 RHO, KG/CU M    6.6913 0 4.1704 0 5.0162-1
 H, KJ/KG         -139.65  -542.54 -1880.18
 U, KJ/KG         -866.50 -1191.42 -2260.22
 G, KJ/KG        -22199.1 -20235.3 -13414.1
 S, KJ/(KG)(K)     8.5799   8.5799   8.5799

 M, (1/n)          29.410   29.410   29.410
 Cp, KJ/(KG)(K)    1.4689   1.4517   1.3452
 GAMMAs            1.2383   1.2418   1.2661
 SON VEL,M/SEC      948.7    897.7    693.7
 MACH NUMBER        0.000    1.000    2.690

 PERFORMANCE PARAMETERS

 Ae/At                      1.0000   4.0000
 CSTAR, M/SEC               1299.2   1299.2
 CF                         0.6909   1.4361
 Ivac, M/SEC                1620.5   2069.5
 Isp, M/SEC                  897.7   1865.8

 MASS FRACTIONS

 *CO             0.00420   *CO2            0.23453   HO2             0.00003
 *H2             0.00004   H2O             0.08140   *NO             0.01376
 NO2             0.00007   *N2             0.58217   N2O             0.00001
 *O              0.00043   *OH             0.00383   *O2             0.07951

  * THERMODYNAMIC PROPERTIES FITTED TO 20000.K

 NOTE. WEIGHT FRACTION OF FUEL IN TOTAL FUELS AND OF OXIDANT IN TOTAL OXIDANTS

           THEORETICAL ROCKET PERFORMANCE ASSUMING FROZEN COMPOSITION

 Pin =   367.4 PSIA
 CASE = _______________

             REACTANT                    WT FRACTION      ENERGY      TEMP
                                          (SEE NOTE)     KJ/KG-MOL      K  
 FUEL        paraffin                     1.0000000  -1860600.000    298.150
 OXIDANT     N2O                          1.0000000         0.000      0.000

 O/F=   12.50000  %FUEL=  7.407407  R,EQ.RATIO= 0.731082  PHI,EQ.RATIO= 0.731082

                 CHAMBER   THROAT     EXIT
 Pinf/P            1.0000   1.7981   25.588
 P, BAR            25.331   14.088  0.98997
 T, K             2536.95  2263.54  1321.71
 RHO, KG/CU M    3.5297 0 2.2002 0 2.6478-1
 H, KJ/KG         -137.58  -535.56 -1855.08
 U, KJ/KG         -855.24 -1175.88 -2228.97
 G, KJ/KG        -22323.9 -20330.9 -13413.8
 S, KJ/(KG)(K)     8.7453   8.7453   8.7453

 M, (1/n)          29.392   29.392   29.392
 Cp, KJ/(KG)(K)    1.4640   1.4466   1.3388
 GAMMAs            1.2395   1.2431   1.2679
 SON VEL,M/SEC      943.2    892.2    688.5
 MACH NUMBER        0.000    1.000    2.692

 PERFORMANCE PARAMETERS

 Ae/At                      1.0000   4.0000
 CSTAR, M/SEC               1290.5   1290.5
 CF                         0.6913   1.4362
 Ivac, M/SEC                1609.9   2055.1
 Isp, M/SEC                  892.2   1853.4

 MASS FRACTIONS

 *CO             0.00468   *CO2            0.23021   *H              0.00001
 HO2             0.00002   *H2             0.00005   H2O             0.07996
 *NO             0.01336   NO2             0.00005   *N2             0.58308
 N2O             0.00001   *O              0.00052   *OH             0.00410
 *O2             0.08396

  * THERMODYNAMIC PROPERTIES FITTED TO 20000.K

 NOTE. WEIGHT FRACTION OF FUEL IN TOTAL FUELS AND OF OXIDANT IN TOTAL OXIDANTS

           THEORETICAL ROCKET PERFORMANCE ASSUMING FROZEN COMPOSITION

 Pin =   382.1 PSIA
 CASE = _______________

             REACTANT                    WT FRACTION      ENERGY      TEMP
                                          (SEE NOTE)     KJ/KG-MOL      K  
 FUEL        paraffin                     1.0000000  -1860600.000    298.150
 OXIDANT     N2O                          1.0000000         0.000      0.000

 O/F=   12.50000  %FUEL=  7.407407  R,EQ.RATIO= 0.731082  PHI,EQ.RATIO= 0.731082

                 CHAMBER   THROAT     EXIT
 Pinf/P            1.0000   1.7980   25.586
 P, BAR            26.345   14.652   1.0297
 T, K             2537.75  2264.29  1322.25
 RHO, KG/CU M    3.6700 0 2.2876 0 2.7529-1
 H, KJ/KG         -137.58  -535.66 -1855.54
 U, KJ/KG         -855.42 -1176.15 -2229.56
 G, KJ/KG        -22302.8 -20312.4 -13404.4
 S, KJ/(KG)(K)     8.7342   8.7342   8.7342

 M, (1/n)          29.394   29.394   29.394
 Cp, KJ/(KG)(K)    1.4641   1.4467   1.3389
 GAMMAs            1.2395   1.2430   1.2678
 SON VEL,M/SEC      943.3    892.3    688.6
 MACH NUMBER        0.000    1.000    2.692

 PERFORMANCE PARAMETERS

 Ae/At                      1.0000   4.0000
 CSTAR, M/SEC               1290.7   1290.7
 CF                         0.6913   1.4362
 Ivac, M/SEC                1610.1   2055.4
 Isp, M/SEC                  892.3   1853.6

 MASS FRACTIONS

 *CO             0.00461   *CO2            0.23032   *H              0.00001
 HO2             0.00002   *H2             0.00004   H2O             0.07999
 *NO             0.01338   NO2             0.00006   *N2             0.58307
 N2O             0.00001   *O              0.00051   *OH             0.00407
 *O2             0.08392

  * THERMODYNAMIC PROPERTIES FITTED TO 20000.K

 NOTE. WEIGHT FRACTION OF FUEL IN TOTAL FUELS AND OF OXIDANT IN TOTAL OXIDANTS

           THEORETICAL ROCKET PERFORMANCE ASSUMING FROZEN COMPOSITION

 Pin =   396.8 PSIA
 CASE = _______________

             REACTANT                    WT FRACTION      ENERGY      TEMP
                                          (SEE NOTE)     KJ/KG-MOL      K  
 FUEL        paraffin                     1.0000000  -1860600.000    298.150
 OXIDANT     N2O                          1.0000000         0.000      0.000

 O/F=   12.50000  %FUEL=  7.407407  R,EQ.RATIO= 0.731082  PHI,EQ.RATIO= 0.731082

                 CHAMBER   THROAT     EXIT
 Pinf/P            1.0000   1.7980   25.584
 P, BAR            27.358   15.215   1.0693
 T, K             2538.51  2265.00  1322.77
 RHO, KG/CU M    3.8102 0 2.3750 0 2.8581-1
 H, KJ/KG         -137.58  -535.75 -1855.98
 U, KJ/KG         -855.59 -1176.40 -2230.12
 G, KJ/KG        -22282.4 -20294.6 -13395.2
 S, KJ/(KG)(K)     8.7235   8.7235   8.7235

 M, (1/n)          29.396   29.396   29.396
 Cp, KJ/(KG)(K)    1.4642   1.4468   1.3390
 GAMMAs            1.2394   1.2430   1.2678
 SON VEL,M/SEC      943.4    892.4    688.7
 MACH NUMBER        0.000    1.000    2.692

 PERFORMANCE PARAMETERS

 Ae/At                      1.0000   4.0000
 CSTAR, M/SEC               1290.8   1290.8
 CF                         0.6913   1.4362
 Ivac, M/SEC                1610.3   2055.7
 Isp, M/SEC                  892.4   1853.9

 MASS FRACTIONS

 *CO             0.00454   *CO2            0.23042   HO2             0.00002
 *H2             0.00004   H2O             0.08001   *NO             0.01339
 NO2             0.00006   *N2             0.58306   N2O             0.00001
 *O              0.00050   *OH             0.00404   *O2             0.08389

  * THERMODYNAMIC PROPERTIES FITTED TO 20000.K

 NOTE. WEIGHT FRACTION OF FUEL IN TOTAL FUELS AND OF OXIDANT IN TOTAL OXIDANTS

           THEORETICAL ROCKET PERFORMANCE ASSUMING FROZEN COMPOSITION

 Pin =   411.5 PSIA
 CASE = _______________

             REACTANT                    WT FRACTION      ENERGY      TEMP
                                          (SEE NOTE)     KJ/KG-MOL      K  
 FUEL        paraffin                     1.0000000  -1860600.000    298.150
 OXIDANT     N2O                          1.0000000         0.000      0.000

 O/F=   12.50000  %FUEL=  7.407407  R,EQ.RATIO= 0.731082  PHI,EQ.RATIO= 0.731082

                 CHAMBER   THROAT     EXIT
 Pinf/P            1.0000   1.7980   25.582
 P, BAR            28.371   15.779   1.1090
 T, K             2539.24  2265.68  1323.26
 RHO, KG/CU M    3.9504 0 2.4624 0 2.9632-1
 H, KJ/KG         -137.58  -535.83 -1856.39
 U, KJ/KG         -855.75 -1176.64 -2230.65
 G, KJ/KG        -22262.6 -20277.3 -13386.3
 S, KJ/(KG)(K)     8.7133   8.7133   8.7133

 M, (1/n)          29.397   29.397   29.397
 Cp, KJ/(KG)(K)    1.4642   1.4468   1.3391
 GAMMAs            1.2394   1.2430   1.2678
 SON VEL,M/SEC      943.5    892.5    688.8
 MACH NUMBER        0.000    1.000    2.692

 PERFORMANCE PARAMETERS

 Ae/At                      1.0000   4.0000
 CSTAR, M/SEC               1291.0   1291.0
 CF                         0.6913   1.4362
 Ivac, M/SEC                1610.5   2055.9
 Isp, M/SEC                  892.5   1854.1

 MASS FRACTIONS

 *CO             0.00448   *CO2            0.23052   HO2             0.00002
 *H2             0.00004   H2O             0.08003   *NO             0.01341
 NO2             0.00006   *N2             0.58306   N2O             0.00001
 *O              0.00050   *OH             0.00401   *O2             0.08386

  * THERMODYNAMIC PROPERTIES FITTED TO 20000.K

 NOTE. WEIGHT FRACTION OF FUEL IN TOTAL FUELS AND OF OXIDANT IN TOTAL OXIDANTS

           THEORETICAL ROCKET PERFORMANCE ASSUMING FROZEN COMPOSITION

 Pin =   426.2 PSIA
 CASE = _______________

             REACTANT                    WT FRACTION      ENERGY      TEMP
                                          (SEE NOTE)     KJ/KG-MOL      K  
 FUEL        paraffin                     1.0000000  -1860600.000    298.150
 OXIDANT     N2O                          1.0000000         0.000      0.000

 O/F=   12.50000  %FUEL=  7.407407  R,EQ.RATIO= 0.731082  PHI,EQ.RATIO= 0.731082

                 CHAMBER   THROAT     EXIT
 Pinf/P            1.0000   1.7980   25.580
 P, BAR            29.384   16.343   1.1487
 T, K             2539.93  2266.33  1323.74
 RHO, KG/CU M    4.0906 0 2.5498 0 3.0683-1
 H, KJ/KG         -137.58  -535.92 -1856.79
 U, KJ/KG         -855.91 -1176.87 -2231.16
 G, KJ/KG        -22243.5 -20260.5 -13377.7
 S, KJ/(KG)(K)     8.7033   8.7033   8.7033

 M, (1/n)          29.399   29.399   29.399
 Cp, KJ/(KG)(K)    1.4643   1.4469   1.3392
 GAMMAs            1.2394   1.2430   1.2677
 SON VEL,M/SEC      943.5    892.6    688.9
 MACH NUMBER        0.000    1.000    2.692

 PERFORMANCE PARAMETERS

 Ae/At                      1.0000   4.0000
 CSTAR, M/SEC               1291.1   1291.1
 CF                         0.6913   1.4362
 Ivac, M/SEC                1610.7   2056.2
 Isp, M/SEC                  892.6   1854.3

 MASS FRACTIONS

 *CO             0.00442   *CO2            0.23061   HO2             0.00002
 *H2             0.00004   H2O             0.08005   *NO             0.01342
 NO2             0.00006   *N2             0.58305   N2O             0.00001
 *O              0.00049   *OH             0.00398   *O2             0.08383

  * THERMODYNAMIC PROPERTIES FITTED TO 20000.K

 NOTE. WEIGHT FRACTION OF FUEL IN TOTAL FUELS AND OF OXIDANT IN TOTAL OXIDANTS

           THEORETICAL ROCKET PERFORMANCE ASSUMING FROZEN COMPOSITION

 Pin =   440.9 PSIA
 CASE = _______________

             REACTANT                    WT FRACTION      ENERGY      TEMP
                                          (SEE NOTE)     KJ/KG-MOL      K  
 FUEL        paraffin                     1.0000000  -1860600.000    298.150
 OXIDANT     N2O                          1.0000000         0.000      0.000

 O/F=   12.50000  %FUEL=  7.407407  R,EQ.RATIO= 0.731082  PHI,EQ.RATIO= 0.731082

                 CHAMBER   THROAT     EXIT
 Pinf/P            1.0000   1.7980   25.579
 P, BAR            30.398   16.907   1.1884
 T, K             2540.60  2266.95  1324.19
 RHO, KG/CU M    4.2308 0 2.6371 0 3.1734-1
 H, KJ/KG         -137.58  -536.00 -1857.17
 U, KJ/KG         -856.06 -1177.09 -2231.65
 G, KJ/KG        -22224.9 -20244.3 -13369.3
 S, KJ/(KG)(K)     8.6937   8.6937   8.6937

 M, (1/n)          29.401   29.401   29.401
 Cp, KJ/(KG)(K)    1.4643   1.4469   1.3393
 GAMMAs            1.2394   1.2429   1.2677
 SON VEL,M/SEC      943.6    892.7    689.0
 MACH NUMBER        0.000    1.000    2.692

 PERFORMANCE PARAMETERS

 Ae/At                      1.0000   4.0000
 CSTAR, M/SEC               1291.3   1291.3
 CF                         0.6913   1.4362
 Ivac, M/SEC                1610.8   2056.4
 Isp, M/SEC                  892.7   1854.5

 MASS FRACTIONS

 *CO             0.00436   *CO2            0.23070   HO2             0.00002
 *H2             0.00004   H2O             0.08007   *NO             0.01343
 NO2             0.00006   *N2             0.58304   N2O             0.00001
 *O              0.00048   *OH             0.00396   *O2             0.08381

  * THERMODYNAMIC PROPERTIES FITTED TO 20000.K

 NOTE. WEIGHT FRACTION OF FUEL IN TOTAL FUELS AND OF OXIDANT IN TOTAL OXIDANTS

           THEORETICAL ROCKET PERFORMANCE ASSUMING FROZEN COMPOSITION

 Pin =   455.6 PSIA
 CASE = _______________

             REACTANT                    WT FRACTION      ENERGY      TEMP
                                          (SEE NOTE)     KJ/KG-MOL      K  
 FUEL        paraffin                     1.0000000  -1860600.000    298.150
 OXIDANT     N2O                          1.0000000         0.000      0.000

 O/F=   12.50000  %FUEL=  7.407407  R,EQ.RATIO= 0.731082  PHI,EQ.RATIO= 0.731082

                 CHAMBER   THROAT     EXIT
 Pinf/P            1.0000   1.7980   25.577
 P, BAR            31.411   17.470   1.2281
 T, K             2541.24  2267.55  1324.62
 RHO, KG/CU M    4.3710 0 2.7245 0 3.2785-1
 H, KJ/KG         -137.58  -536.07 -1857.54
 U, KJ/KG         -856.20 -1177.30 -2232.12
 G, KJ/KG        -22206.9 -20228.5 -13361.2
 S, KJ/(KG)(K)     8.6845   8.6845   8.6845

 M, (1/n)          29.402   29.402   29.402
 Cp, KJ/(KG)(K)    1.4644   1.4470   1.3394
 GAMMAs            1.2393   1.2429   1.2676
 SON VEL,M/SEC      943.7    892.7    689.1
 MACH NUMBER        0.000    1.000    2.692

 PERFORMANCE PARAMETERS

 Ae/At                      1.0000   4.0000
 CSTAR, M/SEC               1291.4   1291.4
 CF                         0.6913   1.4362
 Ivac, M/SEC                1611.0   2056.7
 Isp, M/SEC                  892.7   1854.7

 MASS FRACTIONS

 *CO             0.00431   *CO2            0.23079   HO2             0.00002
 *H2             0.00004   H2O             0.08009   *NO             0.01345
 NO2             0.00006   *N2             0.58304   N2O             0.00001
 *O              0.00048   *OH             0.00393   *O2             0.08378

  * THERMODYNAMIC PROPERTIES FITTED TO 20000.K

 NOTE. WEIGHT FRACTION OF FUEL IN TOTAL FUELS AND OF OXIDANT IN TOTAL OXIDANTS

           THEORETICAL ROCKET PERFORMANCE ASSUMING FROZEN COMPOSITION

 Pin =   470.3 PSIA
 CASE = _______________

             REACTANT                    WT FRACTION      ENERGY      TEMP
                                          (SEE NOTE)     KJ/KG-MOL      K  
 FUEL        paraffin                     1.0000000  -1860600.000    298.150
 OXIDANT     N2O                          1.0000000         0.000      0.000

 O/F=   12.50000  %FUEL=  7.407407  R,EQ.RATIO= 0.731082  PHI,EQ.RATIO= 0.731082

                 CHAMBER   THROAT     EXIT
 Pinf/P            1.0000   1.7979   25.576
 P, BAR            32.424   18.034   1.2678
 T, K             2541.85  2268.12  1325.04
 RHO, KG/CU M    4.5111 0 2.8118 0 3.3836-1
 H, KJ/KG         -137.58  -536.14 -1857.89
 U, KJ/KG         -856.34 -1177.50 -2232.57
 G, KJ/KG        -22189.4 -20213.2 -13353.2
 S, KJ/(KG)(K)     8.6755   8.6755   8.6755

 M, (1/n)          29.404   29.404   29.404
 Cp, KJ/(KG)(K)    1.4644   1.4470   1.3395
 GAMMAs            1.2393   1.2429   1.2676
 SON VEL,M/SEC      943.8    892.8    689.2
 MACH NUMBER        0.000    1.000    2.692

 PERFORMANCE PARAMETERS

 Ae/At                      1.0000   4.0000
 CSTAR, M/SEC               1291.5   1291.5
 CF                         0.6913   1.4362
 Ivac, M/SEC                1611.2   2056.9
 Isp, M/SEC                  892.8   1854.9

 MASS FRACTIONS

 *CO             0.00425   *CO2            0.23087   HO2             0.00002
 *H2             0.00004   H2O             0.08010   *NO             0.01346
 NO2             0.00006   *N2             0.58303   N2O             0.00001
 *O              0.00047   *OH             0.00391   *O2             0.08376

  * THERMODYNAMIC PROPERTIES FITTED TO 20000.K

 NOTE. WEIGHT FRACTION OF FUEL IN TOTAL FUELS AND OF OXIDANT IN TOTAL OXIDANTS

           THEORETICAL ROCKET PERFORMANCE ASSUMING FROZEN COMPOSITION

 Pin =   485.0 PSIA
 CASE = _______________

             REACTANT                    WT FRACTION      ENERGY      TEMP
                                          (SEE NOTE)     KJ/KG-MOL      K  
 FUEL        paraffin                     1.0000000  -1860600.000    298.150
 OXIDANT     N2O                          1.0000000         0.000      0.000

 O/F=   12.50000  %FUEL=  7.407407  R,EQ.RATIO= 0.731082  PHI,EQ.RATIO= 0.731082

                 CHAMBER   THROAT     EXIT
 Pinf/P            1.0000   1.7979   25.574
 P, BAR            33.437   18.598   1.3075
 T, K             2542.44  2268.67  1325.44
 RHO, KG/CU M    4.6512 0 2.8992 0 3.4886-1
 H, KJ/KG         -137.58  -536.21 -1858.22
 U, KJ/KG         -856.47 -1177.70 -2233.00
 G, KJ/KG        -22172.4 -20198.3 -13345.5
 S, KJ/(KG)(K)     8.6668   8.6668   8.6668

 M, (1/n)          29.405   29.405   29.405
 Cp, KJ/(KG)(K)    1.4645   1.4471   1.3395
 GAMMAs            1.2393   1.2429   1.2676
 SON VEL,M/SEC      943.9    892.9    689.2
 MACH NUMBER        0.000    1.000    2.691

 PERFORMANCE PARAMETERS

 Ae/At                      1.0000   4.0000
 CSTAR, M/SEC               1291.7   1291.7
 CF                         0.6913   1.4362
 Ivac, M/SEC                1611.3   2057.1
 Isp, M/SEC                  892.9   1855.1

 MASS FRACTIONS

 *CO             0.00420   *CO2            0.23095   HO2             0.00002
 *H2             0.00004   H2O             0.08012   *NO             0.01347
 NO2             0.00006   *N2             0.58302   N2O             0.00001
 *O              0.00046   *OH             0.00389   *O2             0.08373

  * THERMODYNAMIC PROPERTIES FITTED TO 20000.K

 NOTE. WEIGHT FRACTION OF FUEL IN TOTAL FUELS AND OF OXIDANT IN TOTAL OXIDANTS

           THEORETICAL ROCKET PERFORMANCE ASSUMING FROZEN COMPOSITION

 Pin =   499.7 PSIA
 CASE = _______________

             REACTANT                    WT FRACTION      ENERGY      TEMP
                                          (SEE NOTE)     KJ/KG-MOL      K  
 FUEL        paraffin                     1.0000000  -1860600.000    298.150
 OXIDANT     N2O                          1.0000000         0.000      0.000

 O/F=   12.50000  %FUEL=  7.407407  R,EQ.RATIO= 0.731082  PHI,EQ.RATIO= 0.731082

                 CHAMBER   THROAT     EXIT
 Pinf/P            1.0000   1.7979   25.573
 P, BAR            34.450   19.161   1.3472
 T, K             2543.01  2269.20  1325.82
 RHO, KG/CU M    4.7913 0 2.9865 0 3.5937-1
 H, KJ/KG         -137.58  -536.28 -1858.55
 U, KJ/KG         -856.60 -1177.88 -2233.42
 G, KJ/KG        -22155.8 -20183.8 -13338.0
 S, KJ/(KG)(K)     8.6583   8.6583   8.6583

 M, (1/n)          29.406   29.406   29.406
 Cp, KJ/(KG)(K)    1.4645   1.4471   1.3396
 GAMMAs            1.2393   1.2428   1.2675
 SON VEL,M/SEC      944.0    893.0    689.3
 MACH NUMBER        0.000    1.000    2.691

 PERFORMANCE PARAMETERS

 Ae/At                      1.0000   4.0000
 CSTAR, M/SEC               1291.8   1291.8
 CF                         0.6913   1.4362
 Ivac, M/SEC                1611.5   2057.3
 Isp, M/SEC                  893.0   1855.2

 MASS FRACTIONS

 *CO             0.00416   *CO2            0.23103   HO2             0.00002
 *H2             0.00004   H2O             0.08014   *NO             0.01348
 NO2             0.00006   *N2             0.58302   N2O             0.00001
 *O              0.00046   *OH             0.00386   *O2             0.08371

  * THERMODYNAMIC PROPERTIES FITTED TO 20000.K

 NOTE. WEIGHT FRACTION OF FUEL IN TOTAL FUELS AND OF OXIDANT IN TOTAL OXIDANTS

           THEORETICAL ROCKET PERFORMANCE ASSUMING FROZEN COMPOSITION

 Pin =   514.4 PSIA
 CASE = _______________

             REACTANT                    WT FRACTION      ENERGY      TEMP
                                          (SEE NOTE)     KJ/KG-MOL      K  
 FUEL        paraffin                     1.0000000  -1860600.000    298.150
 OXIDANT     N2O                          1.0000000         0.000      0.000

 O/F=   12.50000  %FUEL=  7.407407  R,EQ.RATIO= 0.731082  PHI,EQ.RATIO= 0.731082

                 CHAMBER   THROAT     EXIT
 Pinf/P            1.0000   1.7979   25.571
 P, BAR            35.464   19.725   1.3869
 T, K             2543.55  2269.71  1326.19
 RHO, KG/CU M    4.9314 0 3.0738 0 3.6987-1
 H, KJ/KG         -137.58  -536.35 -1858.86
 U, KJ/KG         -856.72 -1178.06 -2233.82
 G, KJ/KG        -22139.7 -20169.6 -13330.6
 S, KJ/(KG)(K)     8.6501   8.6501   8.6501

 M, (1/n)          29.408   29.408   29.408
 Cp, KJ/(KG)(K)    1.4645   1.4472   1.3397
 GAMMAs            1.2392   1.2428   1.2675
 SON VEL,M/SEC      944.0    893.0    689.4
 MACH NUMBER        0.000    1.000    2.691

 PERFORMANCE PARAMETERS

 Ae/At                      1.0000   4.0000
 CSTAR, M/SEC               1291.9   1291.9
 CF                         0.6913   1.4362
 Ivac, M/SEC                1611.6   2057.5
 Isp, M/SEC                  893.0   1855.4

 MASS FRACTIONS

 *CO             0.00411   *CO2            0.23110   HO2             0.00002
 *H2             0.00004   H2O             0.08016   *NO             0.01349
 NO2             0.00006   *N2             0.58301   N2O             0.00001
 *O              0.00045   *OH             0.00384   *O2             0.08369

  * THERMODYNAMIC PROPERTIES FITTED TO 20000.K

 NOTE. WEIGHT FRACTION OF FUEL IN TOTAL FUELS AND OF OXIDANT IN TOTAL OXIDANTS

           THEORETICAL ROCKET PERFORMANCE ASSUMING FROZEN COMPOSITION

 Pin =   529.1 PSIA
 CASE = _______________

             REACTANT                    WT FRACTION      ENERGY      TEMP
                                          (SEE NOTE)     KJ/KG-MOL      K  
 FUEL        paraffin                     1.0000000  -1860600.000    298.150
 OXIDANT     N2O                          1.0000000         0.000      0.000

 O/F=   12.50000  %FUEL=  7.407407  R,EQ.RATIO= 0.731082  PHI,EQ.RATIO= 0.731082

                 CHAMBER   THROAT     EXIT
 Pinf/P            1.0000   1.7979   25.570
 P, BAR            36.477   20.289   1.4266
 T, K             2544.08  2270.20  1326.55
 RHO, KG/CU M    5.0714 0 3.1611 0 3.8037-1
 H, KJ/KG         -137.58  -536.41 -1859.16
 U, KJ/KG         -856.84 -1178.24 -2234.20
 G, KJ/KG        -22124.0 -20155.9 -13323.5
 S, KJ/(KG)(K)     8.6422   8.6422   8.6422

 M, (1/n)          29.409   29.409   29.409
 Cp, KJ/(KG)(K)    1.4646   1.4472   1.3398
 GAMMAs            1.2392   1.2428   1.2675
 SON VEL,M/SEC      944.1    893.1    689.5
 MACH NUMBER        0.000    1.000    2.691

 PERFORMANCE PARAMETERS

 Ae/At                      1.0000   4.0000
 CSTAR, M/SEC               1292.0   1292.0
 CF                         0.6912   1.4362
 Ivac, M/SEC                1611.8   2057.7
 Isp, M/SEC                  893.1   1855.6

 MASS FRACTIONS

 *CO             0.00406   *CO2            0.23117   HO2             0.00002
 *H2             0.00004   H2O             0.08017   *NO             0.01350
 NO2             0.00006   *N2             0.58301   N2O             0.00001
 *O              0.00045   *OH             0.00382   *O2             0.08367

  * THERMODYNAMIC PROPERTIES FITTED TO 20000.K

 NOTE. WEIGHT FRACTION OF FUEL IN TOTAL FUELS AND OF OXIDANT IN TOTAL OXIDANTS

           THEORETICAL ROCKET PERFORMANCE ASSUMING FROZEN COMPOSITION

 Pin =   543.8 PSIA
 CASE = _______________

             REACTANT                    WT FRACTION      ENERGY      TEMP
                                          (SEE NOTE)     KJ/KG-MOL      K  
 FUEL        paraffin                     1.0000000  -1860600.000    298.150
 OXIDANT     N2O                          1.0000000         0.000      0.000

 O/F=   12.50000  %FUEL=  7.407407  R,EQ.RATIO= 0.731082  PHI,EQ.RATIO= 0.731082

                 CHAMBER   THROAT     EXIT
 Pinf/P            1.0000   1.7979   25.569
 P, BAR            37.490   20.853   1.4663
 T, K             2544.59  2270.67  1326.90
 RHO, KG/CU M    5.2115 0 3.2484 0 3.9087-1
 H, KJ/KG         -137.58  -536.47 -1859.45
 U, KJ/KG         -856.96 -1178.41 -2234.57
 G, KJ/KG        -22108.7 -20142.4 -13316.5
 S, KJ/(KG)(K)     8.6344   8.6344   8.6344

 M, (1/n)          29.410   29.410   29.410
 Cp, KJ/(KG)(K)    1.4646   1.4473   1.3398
 GAMMAs            1.2392   1.2428   1.2674
 SON VEL,M/SEC      944.2    893.2    689.5
 MACH NUMBER        0.000    1.000    2.691

 PERFORMANCE PARAMETERS

 Ae/At                      1.0000   4.0000
 CSTAR, M/SEC               1292.1   1292.1
 CF                         0.6912   1.4362
 Ivac, M/SEC                1611.9   2057.9
 Isp, M/SEC                  893.2   1855.7

 MASS FRACTIONS

 *CO             0.00402   *CO2            0.23124   HO2             0.00002
 *H2             0.00004   H2O             0.08019   *NO             0.01351
 NO2             0.00007   *N2             0.58300   N2O             0.00001
 *O              0.00044   *OH             0.00380   *O2             0.08365

  * THERMODYNAMIC PROPERTIES FITTED TO 20000.K

 NOTE. WEIGHT FRACTION OF FUEL IN TOTAL FUELS AND OF OXIDANT IN TOTAL OXIDANTS

           THEORETICAL ROCKET PERFORMANCE ASSUMING FROZEN COMPOSITION

 Pin =   558.4 PSIA
 CASE = _______________

             REACTANT                    WT FRACTION      ENERGY      TEMP
                                          (SEE NOTE)     KJ/KG-MOL      K  
 FUEL        paraffin                     1.0000000  -1860600.000    298.150
 OXIDANT     N2O                          1.0000000         0.000      0.000

 O/F=   12.50000  %FUEL=  7.407407  R,EQ.RATIO= 0.731082  PHI,EQ.RATIO= 0.731082

                 CHAMBER   THROAT     EXIT
 Pinf/P            1.0000   1.7979   25.567
 P, BAR            38.504   21.416   1.5060
 T, K             2545.08  2271.13  1327.23
 RHO, KG/CU M    5.3515 0 3.3357 0 4.0137-1
 H, KJ/KG         -137.58  -536.53 -1859.73
 U, KJ/KG         -857.07 -1178.57 -2234.93
 G, KJ/KG        -22093.7 -20129.3 -13309.6
 S, KJ/(KG)(K)     8.6269   8.6269   8.6269

 M, (1/n)          29.411   29.411   29.411
 Cp, KJ/(KG)(K)    1.4646   1.4473   1.3399
 GAMMAs            1.2392   1.2427   1.2674
 SON VEL,M/SEC      944.2    893.2    689.6
 MACH NUMBER        0.000    1.000    2.691

 PERFORMANCE PARAMETERS

 Ae/At                      1.0000   4.0000
 CSTAR, M/SEC               1292.2   1292.2
 CF                         0.6912   1.4362
 Ivac, M/SEC                1612.0   2058.1
 Isp, M/SEC                  893.2   1855.9

 MASS FRACTIONS

 *CO             0.00398   *CO2            0.23131   HO2             0.00002
 *H2             0.00004   H2O             0.08020   *NO             0.01352
 NO2             0.00007   *N2             0.58300   N2O             0.00001
 *O              0.00044   *OH             0.00378   *O2             0.08363

  * THERMODYNAMIC PROPERTIES FITTED TO 20000.K

 NOTE. WEIGHT FRACTION OF FUEL IN TOTAL FUELS AND OF OXIDANT IN TOTAL OXIDANTS

           THEORETICAL ROCKET PERFORMANCE ASSUMING FROZEN COMPOSITION

 Pin =   573.1 PSIA
 CASE = _______________

             REACTANT                    WT FRACTION      ENERGY      TEMP
                                          (SEE NOTE)     KJ/KG-MOL      K  
 FUEL        paraffin                     1.0000000  -1860600.000    298.150
 OXIDANT     N2O                          1.0000000         0.000      0.000

 O/F=   12.50000  %FUEL=  7.407407  R,EQ.RATIO= 0.731082  PHI,EQ.RATIO= 0.731082

                 CHAMBER   THROAT     EXIT
 Pinf/P            1.0000   1.7978   25.566
 P, BAR            39.517   21.980   1.5457
 T, K             2545.55  2271.57  1327.55
 RHO, KG/CU M    5.4915 0 3.4229 0 4.1187-1
 H, KJ/KG         -137.58  -536.58 -1860.00
 U, KJ/KG         -857.17 -1178.72 -2235.28
 G, KJ/KG        -22079.1 -20116.5 -13302.9
 S, KJ/(KG)(K)     8.6196   8.6196   8.6196

 M, (1/n)          29.413   29.413   29.413
 Cp, KJ/(KG)(K)    1.4647   1.4473   1.3400
 GAMMAs            1.2392   1.2427   1.2674
 SON VEL,M/SEC      944.3    893.3    689.7
 MACH NUMBER        0.000    1.000    2.691

 PERFORMANCE PARAMETERS

 Ae/At                      1.0000   4.0000
 CSTAR, M/SEC               1292.4   1292.4
 CF                         0.6912   1.4362
 Ivac, M/SEC                1612.1   2058.2
 Isp, M/SEC                  893.3   1856.0

 MASS FRACTIONS

 *CO             0.00394   *CO2            0.23137   HO2             0.00003
 *H2             0.00004   H2O             0.08021   *NO             0.01353
 NO2             0.00007   *N2             0.58299   N2O             0.00001
 *O              0.00043   *OH             0.00376   *O2             0.08361

  * THERMODYNAMIC PROPERTIES FITTED TO 20000.K

 NOTE. WEIGHT FRACTION OF FUEL IN TOTAL FUELS AND OF OXIDANT IN TOTAL OXIDANTS

           THEORETICAL ROCKET PERFORMANCE ASSUMING FROZEN COMPOSITION

 Pin =   587.8 PSIA
 CASE = _______________

             REACTANT                    WT FRACTION      ENERGY      TEMP
                                          (SEE NOTE)     KJ/KG-MOL      K  
 FUEL        paraffin                     1.0000000  -1860600.000    298.150
 OXIDANT     N2O                          1.0000000         0.000      0.000

 O/F=   12.50000  %FUEL=  7.407407  R,EQ.RATIO= 0.731082  PHI,EQ.RATIO= 0.731082

                 CHAMBER   THROAT     EXIT
 Pinf/P            1.0000   1.7978   25.565
 P, BAR            40.530   22.544   1.5854
 T, K             2546.01  2272.00  1327.87
 RHO, KG/CU M    5.6316 0 3.5102 0 4.2236-1
 H, KJ/KG         -137.58  -536.64 -1860.26
 U, KJ/KG         -857.27 -1178.87 -2235.62
 G, KJ/KG        -22064.8 -20104.0 -13296.4
 S, KJ/(KG)(K)     8.6124   8.6124   8.6124

 M, (1/n)          29.414   29.414   29.414
 Cp, KJ/(KG)(K)    1.4647   1.4474   1.3400
 GAMMAs            1.2391   1.2427   1.2673
 SON VEL,M/SEC      944.4    893.4    689.7
 MACH NUMBER        0.000    1.000    2.691

 PERFORMANCE PARAMETERS

 Ae/At                      1.0000   4.0000
 CSTAR, M/SEC               1292.4   1292.4
 CF                         0.6912   1.4362
 Ivac, M/SEC                1612.3   2058.4
 Isp, M/SEC                  893.4   1856.2

 MASS FRACTIONS

 *CO             0.00390   *CO2            0.23143   HO2             0.00003
 *H2             0.00004   H2O             0.08023   *NO             0.01354
 NO2             0.00007   *N2             0.58299   N2O             0.00001
 *O              0.00043   *OH             0.00374   *O2             0.08359

  * THERMODYNAMIC PROPERTIES FITTED TO 20000.K

 NOTE. WEIGHT FRACTION OF FUEL IN TOTAL FUELS AND OF OXIDANT IN TOTAL OXIDANTS

           THEORETICAL ROCKET PERFORMANCE ASSUMING FROZEN COMPOSITION

 Pin =   602.5 PSIA
 CASE = _______________

             REACTANT                    WT FRACTION      ENERGY      TEMP
                                          (SEE NOTE)     KJ/KG-MOL      K  
 FUEL        paraffin                     1.0000000  -1860600.000    298.150
 OXIDANT     N2O                          1.0000000         0.000      0.000

 O/F=   12.50000  %FUEL=  7.407407  R,EQ.RATIO= 0.731082  PHI,EQ.RATIO= 0.731082

                 CHAMBER   THROAT     EXIT
 Pinf/P            1.0000   1.7978   25.564
 P, BAR            41.543   23.108   1.6251
 T, K             2546.45  2272.42  1328.17
 RHO, KG/CU M    5.7715 0 3.5974 0 4.3286-1
 H, KJ/KG         -137.58  -536.69 -1860.51
 U, KJ/KG         -857.37 -1179.02 -2235.94
 G, KJ/KG        -22050.9 -20091.8 -13290.0
 S, KJ/(KG)(K)     8.6054   8.6054   8.6054

 M, (1/n)          29.415   29.415   29.415
 Cp, KJ/(KG)(K)    1.4647   1.4474   1.3401
 GAMMAs            1.2391   1.2427   1.2673
 SON VEL,M/SEC      944.4    893.4    689.8
 MACH NUMBER        0.000    1.000    2.691

 PERFORMANCE PARAMETERS

 Ae/At                      1.0000   4.0000
 CSTAR, M/SEC               1292.5   1292.5
 CF                         0.6912   1.4362
 Ivac, M/SEC                1612.4   2058.5
 Isp, M/SEC                  893.4   1856.3

 MASS FRACTIONS

 *CO             0.00386   *CO2            0.23149   HO2             0.00003
 *H2             0.00004   H2O             0.08024   *NO             0.01355
 NO2             0.00007   *N2             0.58298   N2O             0.00001
 *O              0.00042   *OH             0.00373   *O2             0.08357

  * THERMODYNAMIC PROPERTIES FITTED TO 20000.K

 NOTE. WEIGHT FRACTION OF FUEL IN TOTAL FUELS AND OF OXIDANT IN TOTAL OXIDANTS

           THEORETICAL ROCKET PERFORMANCE ASSUMING FROZEN COMPOSITION

 Pin =   617.2 PSIA
 CASE = _______________

             REACTANT                    WT FRACTION      ENERGY      TEMP
                                          (SEE NOTE)     KJ/KG-MOL      K  
 FUEL        paraffin                     1.0000000  -1860600.000    298.150
 OXIDANT     N2O                          1.0000000         0.000      0.000

 O/F=   12.50000  %FUEL=  7.407407  R,EQ.RATIO= 0.731082  PHI,EQ.RATIO= 0.731082

                 CHAMBER   THROAT     EXIT
 Pinf/P            1.0000   1.7978   25.563
 P, BAR            42.556   23.671   1.6648
 T, K             2546.89  2272.82  1328.46
 RHO, KG/CU M    5.9115 0 3.6847 0 4.4335-1
 H, KJ/KG         -137.58  -536.74 -1860.76
 U, KJ/KG         -857.47 -1179.16 -2236.26
 G, KJ/KG        -22037.2 -20079.8 -13283.7
 S, KJ/(KG)(K)     8.5986   8.5986   8.5986

 M, (1/n)          29.416   29.416   29.416
 Cp, KJ/(KG)(K)    1.4648   1.4474   1.3401
 GAMMAs            1.2391   1.2427   1.2673
 SON VEL,M/SEC      944.5    893.5    689.8
 MACH NUMBER        0.000    1.000    2.691

 PERFORMANCE PARAMETERS

 Ae/At                      1.0000   4.0000
 CSTAR, M/SEC               1292.6   1292.6
 CF                         0.6912   1.4362
 Ivac, M/SEC                1612.5   2058.7
 Isp, M/SEC                  893.5   1856.4

 MASS FRACTIONS

 *CO             0.00383   *CO2            0.23155   HO2             0.00003
 *H2             0.00004   H2O             0.08025   *NO             0.01356
 NO2             0.00007   *N2             0.58298   N2O             0.00001
 *O              0.00042   *OH             0.00371   *O2             0.08356

  * THERMODYNAMIC PROPERTIES FITTED TO 20000.K

 NOTE. WEIGHT FRACTION OF FUEL IN TOTAL FUELS AND OF OXIDANT IN TOTAL OXIDANTS

           THEORETICAL ROCKET PERFORMANCE ASSUMING FROZEN COMPOSITION

 Pin =   631.9 PSIA
 CASE = _______________

             REACTANT                    WT FRACTION      ENERGY      TEMP
                                          (SEE NOTE)     KJ/KG-MOL      K  
 FUEL        paraffin                     1.0000000  -1860600.000    298.150
 OXIDANT     N2O                          1.0000000         0.000      0.000

 O/F=   12.50000  %FUEL=  7.407407  R,EQ.RATIO= 0.731082  PHI,EQ.RATIO= 0.731082

                 CHAMBER   THROAT     EXIT
 Pinf/P            1.0000   1.7978   25.562
 P, BAR            43.570   24.235   1.7045
 T, K             2547.30  2273.21  1328.75
 RHO, KG/CU M    6.0515 0 3.7719 0 4.5384-1
 H, KJ/KG         -137.58  -536.79 -1861.00
 U, KJ/KG         -857.56 -1179.30 -2236.56
 G, KJ/KG        -22023.9 -20068.1 -13277.5
 S, KJ/(KG)(K)     8.5920   8.5920   8.5920

 M, (1/n)          29.417   29.417   29.417
 Cp, KJ/(KG)(K)    1.4648   1.4475   1.3402
 GAMMAs            1.2391   1.2426   1.2673
 SON VEL,M/SEC      944.5    893.5    689.9
 MACH NUMBER        0.000    1.000    2.691

 PERFORMANCE PARAMETERS

 Ae/At                      1.0000   4.0000
 CSTAR, M/SEC               1292.7   1292.7
 CF                         0.6912   1.4362
 Ivac, M/SEC                1612.6   2058.9
 Isp, M/SEC                  893.5   1856.6

 MASS FRACTIONS

 *CO             0.00379   *CO2            0.23160   HO2             0.00003
 *H2             0.00004   H2O             0.08027   *NO             0.01357
 NO2             0.00007   *N2             0.58298   N2O             0.00001
 *O              0.00042   *OH             0.00369   *O2             0.08354

  * THERMODYNAMIC PROPERTIES FITTED TO 20000.K

 NOTE. WEIGHT FRACTION OF FUEL IN TOTAL FUELS AND OF OXIDANT IN TOTAL OXIDANTS

[...]
 FUEL        paraffin                     1.0000000  -1860600.000    298.150
 OXIDANT     N2O                          1.0000000         0.000      0.000

 O/F=    1.00000  %FUEL= 50.000000  R,EQ.RATIO= 9.138527  PHI,EQ.RATIO= 9.138527

                 CHAMBER   THROAT     EXIT
 Pinf/P            1.0000   1.7650   23.289
 P, BAR            38.504   21.815   1.6533
 T, K             1114.15  1019.29   657.88
 RHO, KG/CU M    9.9152 0 6.1405 0 7.2101-1
 H, KJ/KG         -928.66 -1139.80 -1885.77
 U, KJ/KG        -1316.99 -1495.06 -2115.07
 G, KJ/KG        -10979.6 -10335.0 -7820.70
 S, KJ/(KG)(K)     9.0212   9.0212   9.0212

 M, (1/n)          23.855   23.855   23.855
 MW, MOL WT        15.022   15.022   15.022
 Cp, KJ/(KG)(K)    2.2542   2.1966   1.9120
 GAMMAs            1.1829   1.1886   1.2229
 SON VEL,M/SEC      677.8    649.8    529.5
 MACH NUMBER        0.000    1.000    2.613

 PERFORMANCE PARAMETERS

 Ae/At                      1.0000   4.0000
 CSTAR, M/SEC                964.9    964.9
 CF                         0.6734   1.4338
 Ivac, M/SEC                1196.5   1549.3
 Isp, M/SEC                  649.8   1383.6

 MASS FRACTIONS

 CH4             0.09719   *CO             0.12475   *CO2            0.05594
 C2H4            0.00001   C2H6            0.00003   HCN             0.00001
 *H2             0.02900   H2O             0.07863   NH3             0.00085
 *N2             0.31754   C(gr)           0.29606

  * THERMODYNAMIC PROPERTIES FITTED TO 20000.K

 NOTE. WEIGHT FRACTION OF FUEL IN TOTAL FUELS AND OF OXIDANT IN TOTAL OXIDANTS

           THEORETICAL ROCKET PERFORMANCE ASSUMING FROZEN COMPOSITION

 Pin =   573.1 PSIA
 CASE = _______________

             REACTANT                    WT FRACTION      ENERGY      TEMP
                                          (SEE NOTE)     KJ/KG-MOL      K  
 FUEL        paraffin                     1.0000000  -1860600.000    298.150
 OXIDANT     N2O                          1.0000000         0.000      0.000

 O/F=    1.00000  %FUEL= 50.000000  R,EQ.RATIO= 9.138527  PHI,EQ.RATIO= 9.138527

                 CHAMBER   THROAT     EXIT
 Pinf/P            1.0000   1.7648   23.276
 P, BAR            39.517   22.391   1.6978
 T, K             1115.65  1020.79   659.25
 RHO, KG/CU M    1.0171 1 6.2987 0 7.3950-1
 H, KJ/KG         -928.66 -1139.88 -1886.39
 U, KJ/KG        -1317.19 -1495.37 -2115.97
 G, KJ/KG        -10983.1 -10339.4 -7827.62
 S, KJ/(KG)(K)     9.0122   9.0122   9.0122

 M, (1/n)          23.875   23.875   23.875
 MW, MOL WT        15.035   15.035   15.035
 Cp, KJ/(KG)(K)    2.2549   2.1973   1.9127
 GAMMAs            1.1826   1.1883   1.2226
 SON VEL,M/SEC      677.9    650.0    529.8
 MACH NUMBER        0.000    1.000    2.612

 PERFORMANCE PARAMETERS

 Ae/At                      1.0000   4.0000
 CSTAR, M/SEC                965.3    965.3
 CF                         0.6733   1.4338
 Ivac, M/SEC                1196.9   1549.9
 Isp, M/SEC                  650.0   1384.0

 MASS FRACTIONS

 CH4             0.09765   *CO             0.12459   *CO2            0.05592
 C2H4            0.00001   C2H6            0.00003   HCN             0.00001
 *H2             0.02887   H2O             0.07874   NH3             0.00086
 *N2             0.31753   C(gr)           0.29578

  * THERMODYNAMIC PROPERTIES FITTED TO 20000.K

 NOTE. WEIGHT FRACTION OF FUEL IN TOTAL FUELS AND OF OXIDANT IN TOTAL OXIDANTS

           THEORETICAL ROCKET PERFORMANCE ASSUMING FROZEN COMPOSITION

 Pin =   587.8 PSIA
 CASE = _______________

             REACTANT                    WT FRACTION      ENERGY      TEMP
                                          (SEE NOTE)     KJ/KG-MOL      K  
 FUEL        paraffin                     1.0000000  -1860600.000    298.150
 OXIDANT     N2O                          1.0000000         0.000      0.000

 O/F=    1.00000  %FUEL= 50.000000  R,EQ.RATIO= 9.138527  PHI,EQ.RATIO= 9.138527

                 CHAMBER   THROAT     EXIT
 Pinf/P            1.0000   1.7647   23.263
 P, BAR            40.530   22.967   1.7423
 T, K             1117.12  1022.24   660.57
 RHO, KG/CU M    1.0427 1 6.4569 0 7.5798-1
 H, KJ/KG         -928.66 -1139.97 -1886.98
 U, KJ/KG        -1317.38 -1495.67 -2116.84
 G, KJ/KG        -10986.5 -10343.6 -7834.37
 S, KJ/(KG)(K)     9.0034   9.0034   9.0034

 M, (1/n)          23.895   23.895   23.895
 MW, MOL WT        15.048   15.048   15.048
 Cp, KJ/(KG)(K)    2.2556   2.1980   1.9133
 GAMMAs            1.1824   1.1881   1.2223
 SON VEL,M/SEC      678.0    650.1    530.0
 MACH NUMBER        0.000    1.000    2.612

 PERFORMANCE PARAMETERS

 Ae/At                      1.0000   4.0000
 CSTAR, M/SEC                965.6    965.6
 CF                         0.6733   1.4338
 Ivac, M/SEC                1197.3   1550.5
 Isp, M/SEC                  650.1   1384.4

 MASS FRACTIONS

 CH4             0.09810   *CO             0.12445   *CO2            0.05591
 C2H4            0.00001   C2H6            0.00004   HCN             0.00001
 *H2             0.02874   H2O             0.07884   NH3             0.00087
 *N2             0.31752   C(gr)           0.29551

  * THERMODYNAMIC PROPERTIES FITTED TO 20000.K

 NOTE. WEIGHT FRACTION OF FUEL IN TOTAL FUELS AND OF OXIDANT IN TOTAL OXIDANTS

           THEORETICAL ROCKET PERFORMANCE ASSUMING FROZEN COMPOSITION

 Pin =   602.5 PSIA
 CASE = _______________

             REACTANT                    WT FRACTION      ENERGY      TEMP
                                          (SEE NOTE)     KJ/KG-MOL      K  
 FUEL        paraffin                     1.0000000  -1860600.000    298.150
 OXIDANT     N2O                          1.0000000         0.000      0.000

 O/F=    1.00000  %FUEL= 50.000000  R,EQ.RATIO= 9.138527  PHI,EQ.RATIO= 9.138527

                 CHAMBER   THROAT     EXIT
 Pinf/P            1.0000   1.7645   23.250
 P, BAR            41.543   23.544   1.7868
 T, K             1118.55  1023.67   661.87
 RHO, KG/CU M    1.0682 1 6.6149 0 7.7645-1
 H, KJ/KG         -928.66 -1140.05 -1887.57
 U, KJ/KG        -1317.57 -1495.96 -2117.69
 G, KJ/KG        -10989.7 -10347.7 -7840.96
 S, KJ/(KG)(K)     8.9948   8.9948   8.9948

 M, (1/n)          23.914   23.914   23.914
 MW, MOL WT        15.060   15.060   15.060
 Cp, KJ/(KG)(K)    2.2563   2.1987   1.9140
 GAMMAs            1.1822   1.1878   1.2220
 SON VEL,M/SEC      678.0    650.2    530.3
 MACH NUMBER        0.000    1.000    2.611

 PERFORMANCE PARAMETERS

 Ae/At                      1.0000   4.0000
 CSTAR, M/SEC                965.9    965.9
 CF                         0.6732   1.4338
 Ivac, M/SEC                1197.6   1551.0
 Isp, M/SEC                  650.2   1384.9

 MASS FRACTIONS

 CH4             0.09854   *CO             0.12430   *CO2            0.05590
 C2H4            0.00001   C2H6            0.00004   HCN             0.00001
 *H2             0.02862   H2O             0.07894   NH3             0.00088
 *N2             0.31751   C(gr)           0.29525

  * THERMODYNAMIC PROPERTIES FITTED TO 20000.K

 NOTE. WEIGHT FRACTION OF FUEL IN TOTAL FUELS AND OF OXIDANT IN TOTAL OXIDANTS

           THEORETICAL ROCKET PERFORMANCE ASSUMING FROZEN COMPOSITION

 Pin =   617.2 PSIA
 CASE = _______________

             REACTANT                    WT FRACTION      ENERGY      TEMP
                                          (SEE NOTE)     KJ/KG-MOL      K  
 FUEL        paraffin                     1.0000000  -1860600.000    298.150
 OXIDANT     N2O                          1.0000000         0.000      0.000

 O/F=    1.00000  %FUEL= 50.000000  R,EQ.RATIO= 9.138527  PHI,EQ.RATIO= 9.138527

                 CHAMBER   THROAT     EXIT
 Pinf/P            1.0000   1.7644   23.238
 P, BAR            42.556   24.120   1.8314
 T, K             1119.94  1025.06   663.14
 RHO, KG/CU M    1.0938 1 6.7730 0 7.9491-1
 H, KJ/KG         -928.66 -1140.12 -1888.13
 U, KJ/KG        -1317.75 -1496.25 -2118.52
 G, KJ/KG        -10992.9 -10351.7 -7847.40
 S, KJ/(KG)(K)     8.9864   8.9864   8.9864

 M, (1/n)          23.932   23.932   23.932
 MW, MOL WT        15.073   15.073   15.073
 Cp, KJ/(KG)(K)    2.2570   2.1994   1.9146
 GAMMAs            1.1819   1.1876   1.2217
 SON VEL,M/SEC      678.1    650.3    530.5
 MACH NUMBER        0.000    1.000    2.611

 PERFORMANCE PARAMETERS

 Ae/At                      1.0000   4.0000
 CSTAR, M/SEC                966.2    966.2
 CF                         0.6731   1.4338
 Ivac, M/SEC                1197.9   1551.6
 Isp, M/SEC                  650.3   1385.3

 MASS FRACTIONS

 CH4             0.09897   *CO             0.12416   *CO2            0.05589
 C2H4            0.00001   C2H6            0.00004   HCN             0.00001
 *H2             0.02850   H2O             0.07904   NH3             0.00089
 *N2             0.31750   C(gr)           0.29499

  * THERMODYNAMIC PROPERTIES FITTED TO 20000.K

 NOTE. WEIGHT FRACTION OF FUEL IN TOTAL FUELS AND OF OXIDANT IN TOTAL OXIDANTS

           THEORETICAL ROCKET PERFORMANCE ASSUMING FROZEN COMPOSITION

 Pin =   631.9 PSIA
 CASE = _______________

             REACTANT                    WT FRACTION      ENERGY      TEMP
                                          (SEE NOTE)     KJ/KG-MOL      K  
 FUEL        paraffin                     1.0000000  -1860600.000    298.150
 OXIDANT     N2O                          1.0000000         0.000      0.000

 O/F=    1.00000  %FUEL= 50.000000  R,EQ.RATIO= 9.138527  PHI,EQ.RATIO= 9.138527

                 CHAMBER   THROAT     EXIT
 Pinf/P            1.0000   1.7642   23.226
 P, BAR            43.570   24.696   1.8759
 T, K             1121.31  1026.42   664.39
 RHO, KG/CU M    1.1193 1 6.9309 0 8.1336-1
 H, KJ/KG         -928.66 -1140.20 -1888.69
 U, KJ/KG        -1317.92 -1496.52 -2119.33
 G, KJ/KG        -10996.0 -10355.6 -7853.69
 S, KJ/(KG)(K)     8.9782   8.9782   8.9782

 M, (1/n)          23.951   23.951   23.951
 MW, MOL WT        15.085   15.085   15.085
 Cp, KJ/(KG)(K)    2.2577   2.2000   1.9153
 GAMMAs            1.1817   1.1874   1.2214
 SON VEL,M/SEC      678.2    650.4    530.8
 MACH NUMBER        0.000    1.000    2.611

 PERFORMANCE PARAMETERS

 Ae/At                      1.0000   4.0000
 CSTAR, M/SEC                966.5    966.5
 CF                         0.6730   1.4337
 Ivac, M/SEC                1198.3   1552.1
 Isp, M/SEC                  650.4   1385.7

 MASS FRACTIONS

 CH4             0.09939   *CO             0.12402   *CO2            0.05588
 C2H4            0.00001   C2H6            0.00004   HCN             0.00001
 *H2             0.02838   H2O             0.07914   NH3             0.00090
 *N2             0.31750   C(gr)           0.29474

  * THERMODYNAMIC PROPERTIES FITTED TO 20000.K

 NOTE. WEIGHT FRACTION OF FUEL IN TOTAL FUELS AND OF OXIDANT IN TOTAL OXIDANTS

           THEORETICAL ROCKET PERFORMANCE ASSUMING FROZEN COMPOSITION

 Pin =   646.6 PSIA
 CASE = _______________

             REACTANT                    WT FRACTION      ENERGY      TEMP
                                          (SEE NOTE)     KJ/KG-MOL      K  
 FUEL        paraffin                     1.0000000  -1860600.000    298.150
 OXIDANT     N2O                          1.0000000         0.000      0.000

 O/F=    1.00000  %FUEL= 50.000000  R,EQ.RATIO= 9.138527  PHI,EQ.RATIO= 9.138527

                 CHAMBER   THROAT     EXIT
 Pinf/P            1.0000   1.7641   23.214
 P, BAR            44.583   25.273   1.9205
 T, K             1122.65  1027.75   665.60
 RHO, KG/CU M    1.1448 1 7.0888 0 8.3180-1
 H, KJ/KG         -928.66 -1140.27 -1889.22
 U, KJ/KG        -1318.10 -1496.79 -2120.12
 G, KJ/KG        -10999.1 -10359.4 -7859.84
 S, KJ/(KG)(K)     8.9702   8.9702   8.9702

 M, (1/n)          23.969   23.969   23.969
 MW, MOL WT        15.097   15.097   15.097
 Cp, KJ/(KG)(K)    2.2583   2.2007   1.9159
 GAMMAs            1.1815   1.1871   1.2211
 SON VEL,M/SEC      678.3    650.6    531.0
 MACH NUMBER        0.000    1.000    2.610

 PERFORMANCE PARAMETERS

 Ae/At                      1.0000   4.0000
 CSTAR, M/SEC                966.7    966.7
 CF                         0.6729   1.4337
 Ivac, M/SEC                1198.6   1552.6
 Isp, M/SEC                  650.6   1386.0

 MASS FRACTIONS

 CH4             0.09980   *CO             0.12388   *CO2            0.05588
 C2H4            0.00001   C2H6            0.00004   HCN             0.00001
 *H2             0.02826   H2O             0.07924   NH3             0.00091
 *N2             0.31749   C(gr)           0.29449

  * THERMODYNAMIC PROPERTIES FITTED TO 20000.K

 NOTE. WEIGHT FRACTION OF FUEL IN TOTAL FUELS AND OF OXIDANT IN TOTAL OXIDANTS

           THEORETICAL ROCKET PERFORMANCE ASSUMING FROZEN COMPOSITION

 Pin =   661.3 PSIA
 CASE = _______________

             REACTANT                    WT FRACTION      ENERGY      TEMP
                                          (SEE NOTE)     KJ/KG-MOL      K  
 FUEL        paraffin                     1.0000000  -1860600.000    298.150
 OXIDANT     N2O                          1.0000000         0.000      0.000

 O/F=    1.00000  %FUEL= 50.000000  R,EQ.RATIO= 9.138527  PHI,EQ.RATIO= 9.138527

                 CHAMBER   THROAT     EXIT
 Pinf/P            1.0000   1.7639   23.202
 P, BAR            45.596   25.849   1.9652
 T, K             1123.95  1029.05   666.79
 RHO, KG/CU M    1.1703 1 7.2466 0 8.5023-1
 H, KJ/KG         -928.66 -1140.35 -1889.75
 U, KJ/KG        -1318.26 -1497.05 -2120.88
 G, KJ/KG        -11002.1 -10363.2 -7865.86
 S, KJ/(KG)(K)     8.9625   8.9625   8.9625

 M, (1/n)          23.986   23.986   23.986
 MW, MOL WT        15.108   15.108   15.108
 Cp, KJ/(KG)(K)    2.2589   2.2013   1.9165
 GAMMAs            1.1813   1.1869   1.2208
 SON VEL,M/SEC      678.4    650.7    531.2
 MACH NUMBER        0.000    1.000    2.610

 PERFORMANCE PARAMETERS

 Ae/At                      1.0000   4.0000
 CSTAR, M/SEC                967.0    967.0
 CF                         0.6729   1.4337
 Ivac, M/SEC                1198.9   1553.1
 Isp, M/SEC                  650.7   1386.4

 MASS FRACTIONS

 CH4             0.10020   *CO             0.12374   *CO2            0.05587
 C2H4            0.00001   C2H6            0.00004   HCN             0.00001
 *H2             0.02815   H2O             0.07933   NH3             0.00092
 *N2             0.31748   C(gr)           0.29425

  * THERMODYNAMIC PROPERTIES FITTED TO 20000.K

 NOTE. WEIGHT FRACTION OF FUEL IN TOTAL FUELS AND OF OXIDANT IN TOTAL OXIDANTS

           THEORETICAL ROCKET PERFORMANCE ASSUMING FROZEN COMPOSITION

 Pin =   676.0 PSIA
 CASE = _______________

             REACTANT                    WT FRACTION      ENERGY      TEMP
                                          (SEE NOTE)     KJ/KG-MOL      K  
 FUEL        paraffin                     1.0000000  -1860600.000    298.150
 OXIDANT     N2O                          1.0000000         0.000      0.000

 O/F=    1.00000  %FUEL= 50.000000  R,EQ.RATIO= 9.138527  PHI,EQ.RATIO= 9.138527

                 CHAMBER   THROAT     EXIT
 Pinf/P            1.0000   1.7638   23.191
 P, BAR            46.609   26.426   2.0098
 T, K             1125.23  1030.33   667.96
 RHO, KG/CU M    1.1958 1 7.4044 0 8.6865-1
 H, KJ/KG         -928.66 -1140.42 -1890.26
 U, KJ/KG        -1318.43 -1497.31 -2121.64
 G, KJ/KG        -11005.0 -10366.8 -7871.75
 S, KJ/(KG)(K)     8.9548   8.9548   8.9548

 M, (1/n)          24.004   24.004   24.004
 MW, MOL WT        15.119   15.119   15.119
 Cp, KJ/(KG)(K)    2.2596   2.2019   1.9171
 GAMMAs            1.1811   1.1867   1.2205
 SON VEL,M/SEC      678.5    650.8    531.4
 MACH NUMBER        0.000    1.000    2.610

 PERFORMANCE PARAMETERS

 Ae/At                      1.0000   4.0000
 CSTAR, M/SEC                967.3    967.3
 CF                         0.6728   1.4337
 Ivac, M/SEC                1199.2   1553.6
 Isp, M/SEC                  650.8   1386.8

 MASS FRACTIONS

 CH4             0.10059   *CO             0.12361   *CO2            0.05587
 C2H4            0.00001   C2H6            0.00004   HCN             0.00001
 *H2             0.02804   H2O             0.07942   NH3             0.00093
 *N2             0.31747   C(gr)           0.29401

  * THERMODYNAMIC PROPERTIES FITTED TO 20000.K

 NOTE. WEIGHT FRACTION OF FUEL IN TOTAL FUELS AND OF OXIDANT IN TOTAL OXIDANTS

           THEORETICAL ROCKET PERFORMANCE ASSUMING FROZEN COMPOSITION

 Pin =   690.7 PSIA
 CASE = _______________

             REACTANT                    WT FRACTION      ENERGY      TEMP
                                          (SEE NOTE)     KJ/KG-MOL      K  
 FUEL        paraffin                     1.0000000  -1860600.000    298.150
 OXIDANT     N2O                          1.0000000         0.000      0.000

 O/F=    1.00000  %FUEL= 50.000000  R,EQ.RATIO= 9.138527  PHI,EQ.RATIO= 9.138527

                 CHAMBER   THROAT     EXIT
 Pinf/P            1.0000   1.7637   23.180
 P, BAR            47.623   27.002   2.0545
 T, K             1126.49  1031.57   669.11
 RHO, KG/CU M    1.2213 1 7.5621 0 8.8707-1
 H, KJ/KG         -928.66 -1140.49 -1890.76
 U, KJ/KG        -1318.59 -1497.56 -2122.37
 G, KJ/KG        -11007.8 -10370.4 -7877.52
 S, KJ/(KG)(K)     8.9474   8.9474   8.9474

 M, (1/n)          24.020   24.020   24.020
 MW, MOL WT        15.131   15.131   15.131
 Cp, KJ/(KG)(K)    2.2602   2.2025   1.9177
 GAMMAs            1.1808   1.1865   1.2203
 SON VEL,M/SEC      678.6    650.9    531.6
 MACH NUMBER        0.000    1.000    2.609

 PERFORMANCE PARAMETERS

 Ae/At                      1.0000   4.0000
 CSTAR, M/SEC                967.5    967.5
 CF                         0.6727   1.4337
 Ivac, M/SEC                1199.5   1554.1
 Isp, M/SEC                  650.9   1387.2

 MASS FRACTIONS

 CH4             0.10097   *CO             0.12347   *CO2            0.05586
 C2H4            0.00001   C2H6            0.00004   HCN             0.00001
 *H2             0.02793   H2O             0.07951   NH3             0.00094
 *N2             0.31746   C(gr)           0.29378

  * THERMODYNAMIC PROPERTIES FITTED TO 20000.K

 NOTE. WEIGHT FRACTION OF FUEL IN TOTAL FUELS AND OF OXIDANT IN TOTAL OXIDANTS

           THEORETICAL ROCKET PERFORMANCE ASSUMING FROZEN COMPOSITION

 Pin =   705.4 PSIA
 CASE = _______________

             REACTANT                    WT FRACTION      ENERGY      TEMP
                                          (SEE NOTE)     KJ/KG-MOL      K  
 FUEL        paraffin                     1.0000000  -1860600.000    298.150
 OXIDANT     N2O                          1.0000000         0.000      0.000

 O/F=    1.00000  %FUEL= 50.000000  R,EQ.RATIO= 9.138527  PHI,EQ.RATIO= 9.138527

                 CHAMBER   THROAT     EXIT
 Pinf/P            1.0000   1.7635   23.169
 P, BAR            48.636   27.579   2.0992
 T, K             1127.72  1032.80   670.23
 RHO, KG/CU M    1.2468 1 7.7197 0 9.0547-1
 H, KJ/KG         -928.66 -1140.55 -1891.25
 U, KJ/KG        -1318.74 -1497.80 -2123.09
 G, KJ/KG        -11010.6 -10373.9 -7883.17
 S, KJ/(KG)(K)     8.9401   8.9401   8.9401

 M, (1/n)          24.037   24.037   24.037
 MW, MOL WT        15.141   15.141   15.141
 Cp, KJ/(KG)(K)    2.2608   2.2031   1.9183
 GAMMAs            1.1806   1.1862   1.2200
 SON VEL,M/SEC      678.6    651.0    531.8
 MACH NUMBER        0.000    1.000    2.609

 PERFORMANCE PARAMETERS

 Ae/At                      1.0000   4.0000
 CSTAR, M/SEC                967.8    967.8
 CF                         0.6727   1.4337
 Ivac, M/SEC                1199.8   1554.6
 Isp, M/SEC                  651.0   1387.5

 MASS FRACTIONS

 CH4             0.10135   *CO             0.12334   *CO2            0.05586
 C2H4            0.00001   C2H6            0.00004   HCN             0.00001
 *H2             0.02783   H2O             0.07960   NH3             0.00094
 *N2             0.31746   C(gr)           0.29356

  * THERMODYNAMIC PROPERTIES FITTED TO 20000.K

 NOTE. WEIGHT FRACTION OF FUEL IN TOTAL FUELS AND OF OXIDANT IN TOTAL OXIDANTS