         NASA-GLENN CHEMICAL EQUILIBRIUM PROGRAM CEA2, FEBRUARY 5, 2004
                   BY  BONNIE MCBRIDE AND SANFORD GORDON
      REFS: NASA RP-1311, PART I, 1994 AND NASA RP-1311, PART II, 1996

 *******************************************************************************

  
 ### CEA analysis performed on Tue 12-Oct-2021 14:55:26
  
 # Problem Type: "Rocket" (Infinite Area Combustor)
  
 prob case=_______________3182 ro frozen
  
 # Pressure (24 values):
 p,atm= 25, 26, 27, 28, 29, 30, 31, 32, 33, 34, 35, 36, 37, 38, 39, 40, 41, 42, 4
 3, 44, 45, 46, 47, 48
 # Supersonic Area Ratio (1 value):
 supar= 4
  
 # Oxidizer/Fuel Wt. ratio (31 values):
 o/f= 18.3, 18.5, 18.7, 18.9, 19.1, 19.3, 19.5, 19.7, 19.9, 20.1, 20.3, 20.5, 20.
 7, 20.9, 21.1, 21.3, 21.5, 21.7, 21.9, 22.1, 22.3, 2
  
 # You selected the following fuels and oxidizers:
 reac
 fuel paraffin          wt%=100.0000
 oxid N2O               wt%=100.0000
  
 # You selected these options for output:
 # short version of output
 output short
 # Proportions of any products will be expressed as Mass Fractions.
 output massf
 # Heat will be expressed as siunits
 output siunits
  
 # Input prepared by this script:/var/www/sites/cearun.grc.nasa.gov/cgi-bin/CEARU
 N/prepareInputFile.cgi
  
 ### IMPORTANT:  The following line is the end of your CEA input file!
 end

           THEORETICAL ROCKET PERFORMANCE ASSUMING FROZEN COMPOSITION

 Pin =   367.4 PSIA
 CASE = _______________

             REACTANT                    WT FRACTION      ENERGY      TEMP
                                          (SEE NOTE)     KJ/KG-MOL      K  
 FUEL        paraffin                     1.0000000  -1860600.000    298.150
 OXIDANT     N2O                          1.0000000         0.000      0.000

 O/F=   18.30000  %FUEL=  5.181347  R,EQ.RATIO= 0.499373  PHI,EQ.RATIO= 0.499373

                 CHAMBER   THROAT     EXIT
 Pinf/P            1.0000   1.8105   26.858
 P, BAR            25.331   13.991  0.94316
 T, K             2022.02  1788.39   993.32
 RHO, KG/CU M    4.4408 0 2.7732 0 3.3658-1
 H, KJ/KG         -96.234  -414.93 -1448.48
 U, KJ/KG         -666.66  -919.44 -1728.70
 G, KJ/KG        -16902.7 -15279.5 -9704.67
 S, KJ/(KG)(K)     8.3117   8.3117   8.3117

 M, (1/n)          29.473   29.473   29.473
 Cp, KJ/(KG)(K)    1.3742   1.3532   1.2285
 GAMMAs            1.2583   1.2634   1.2981
 SON VEL,M/SEC      847.2    798.4    603.1
 MACH NUMBER        0.000    1.000    2.727

 PERFORMANCE PARAMETERS

 Ae/At                      1.0000   4.0000
 CSTAR, M/SEC               1144.1   1144.1
 CF                         0.6978   1.4374
 Ivac, M/SEC                1430.3   1814.9
 Isp, M/SEC                  798.4   1644.5

 MASS FRACTIONS

 *CO             0.00008   *CO2            0.16603   HO2             0.00001
 H2O             0.05744   *NO             0.00638   NO2             0.00007
 *N2             0.60050   *O              0.00003   *OH             0.00060
 *O2             0.16884

  * THERMODYNAMIC PROPERTIES FITTED TO 20000.K

 NOTE. WEIGHT FRACTION OF FUEL IN TOTAL FUELS AND OF OXIDANT IN TOTAL OXIDANTS

           THEORETICAL ROCKET PERFORMANCE ASSUMING FROZEN COMPOSITION

 Pin =   382.1 PSIA
 CASE = _______________

             REACTANT                    WT FRACTION      ENERGY      TEMP
                                          (SEE NOTE)     KJ/KG-MOL      K  
 FUEL        paraffin                     1.0000000  -1860600.000    298.150
 OXIDANT     N2O                          1.0000000         0.000      0.000

 O/F=   18.30000  %FUEL=  5.181347  R,EQ.RATIO= 0.499373  PHI,EQ.RATIO= 0.499373

                 CHAMBER   THROAT     EXIT
 Pinf/P            1.0000   1.8105   26.858
 P, BAR            26.345   14.551  0.98089
 T, K             2022.08  1788.44   993.36
 RHO, KG/CU M    4.6183 0 2.8841 0 3.5003-1
 H, KJ/KG         -96.234  -414.93 -1448.52
 U, KJ/KG         -666.67  -919.46 -1728.75
 G, KJ/KG        -16880.8 -15260.1 -9694.01
 S, KJ/(KG)(K)     8.3006   8.3006   8.3006

 M, (1/n)          29.473   29.473   29.473
 Cp, KJ/(KG)(K)    1.3742   1.3532   1.2285
 GAMMAs            1.2583   1.2634   1.2981
 SON VEL,M/SEC      847.2    798.4    603.1
 MACH NUMBER        0.000    1.000    2.727

 PERFORMANCE PARAMETERS

 Ae/At                      1.0000   4.0000
 CSTAR, M/SEC               1144.1   1144.1
 CF                         0.6978   1.4374
 Ivac, M/SEC                1430.3   1815.0
 Isp, M/SEC                  798.4   1644.6

 MASS FRACTIONS

 *CO             0.00008   *CO2            0.16604   HO2             0.00001
 H2O             0.05745   *NO             0.00638   NO2             0.00007
 *N2             0.60050   *O              0.00003   *OH             0.00059
 *O2             0.16884

  * THERMODYNAMIC PROPERTIES FITTED TO 20000.K

 NOTE. WEIGHT FRACTION OF FUEL IN TOTAL FUELS AND OF OXIDANT IN TOTAL OXIDANTS

           THEORETICAL ROCKET PERFORMANCE ASSUMING FROZEN COMPOSITION

 Pin =   396.8 PSIA
 CASE = _______________

             REACTANT                    WT FRACTION      ENERGY      TEMP
                                          (SEE NOTE)     KJ/KG-MOL      K  
 FUEL        paraffin                     1.0000000  -1860600.000    298.150
 OXIDANT     N2O                          1.0000000         0.000      0.000

 O/F=   18.30000  %FUEL=  5.181347  R,EQ.RATIO= 0.499373  PHI,EQ.RATIO= 0.499373

                 CHAMBER   THROAT     EXIT
 Pinf/P            1.0000   1.8105   26.858
 P, BAR            27.358   15.111   1.0186
 T, K             2022.13  1788.49   993.39
 RHO, KG/CU M    4.7958 0 2.9949 0 3.6348-1
 H, KJ/KG         -96.234  -414.94 -1448.55
 U, KJ/KG         -666.68  -919.48 -1728.79
 G, KJ/KG        -16859.7 -15241.5 -9683.75
 S, KJ/(KG)(K)     8.2900   8.2900   8.2900

 M, (1/n)          29.473   29.473   29.473
 Cp, KJ/(KG)(K)    1.3742   1.3532   1.2285
 GAMMAs            1.2583   1.2634   1.2981
 SON VEL,M/SEC      847.2    798.4    603.1
 MACH NUMBER        0.000    1.000    2.727

 PERFORMANCE PARAMETERS

 Ae/At                      1.0000   4.0000
 CSTAR, M/SEC               1144.1   1144.1
 CF                         0.6978   1.4374
 Ivac, M/SEC                1430.3   1815.0
 Isp, M/SEC                  798.4   1644.6

 MASS FRACTIONS

 *CO             0.00008   *CO2            0.16604   HO2             0.00001
 H2O             0.05745   *NO             0.00638   NO2             0.00007
 *N2             0.60050   *O              0.00003   *OH             0.00058
 *O2             0.16884

  * THERMODYNAMIC PROPERTIES FITTED TO 20000.K

 NOTE. WEIGHT FRACTION OF FUEL IN TOTAL FUELS AND OF OXIDANT IN TOTAL OXIDANTS

           THEORETICAL ROCKET PERFORMANCE ASSUMING FROZEN COMPOSITION

 Pin =   411.5 PSIA
 CASE = _______________

             REACTANT                    WT FRACTION      ENERGY      TEMP
                                          (SEE NOTE)     KJ/KG-MOL      K  
 FUEL        paraffin                     1.0000000  -1860600.000    298.150
 OXIDANT     N2O                          1.0000000         0.000      0.000

 O/F=   18.30000  %FUEL=  5.181347  R,EQ.RATIO= 0.499373  PHI,EQ.RATIO= 0.499373

                 CHAMBER   THROAT     EXIT
 Pinf/P            1.0000   1.8105   26.857
 P, BAR            28.371   15.670   1.0564
 T, K             2022.19  1788.54   993.42
 RHO, KG/CU M    4.9733 0 3.1058 0 3.7694-1
 H, KJ/KG         -96.234  -414.95 -1448.58
 U, KJ/KG         -666.70  -919.50 -1728.83
 G, KJ/KG        -16839.4 -15223.6 -9673.86
 S, KJ/(KG)(K)     8.2797   8.2797   8.2797

 M, (1/n)          29.473   29.473   29.473
 Cp, KJ/(KG)(K)    1.3742   1.3532   1.2285
 GAMMAs            1.2583   1.2634   1.2981
 SON VEL,M/SEC      847.2    798.4    603.1
 MACH NUMBER        0.000    1.000    2.727

 PERFORMANCE PARAMETERS

 Ae/At                      1.0000   4.0000
 CSTAR, M/SEC               1144.2   1144.2
 CF                         0.6978   1.4374
 Ivac, M/SEC                1430.3   1815.0
 Isp, M/SEC                  798.4   1644.6

 MASS FRACTIONS

 *CO             0.00008   *CO2            0.16604   HO2             0.00001
 H2O             0.05745   *NO             0.00638   NO2             0.00008
 *N2             0.60050   *O              0.00003   *OH             0.00058
 *O2             0.16884

  * THERMODYNAMIC PROPERTIES FITTED TO 20000.K

 NOTE. WEIGHT FRACTION OF FUEL IN TOTAL FUELS AND OF OXIDANT IN TOTAL OXIDANTS

           THEORETICAL ROCKET PERFORMANCE ASSUMING FROZEN COMPOSITION

 Pin =   426.2 PSIA
 CASE = _______________

             REACTANT                    WT FRACTION      ENERGY      TEMP
                                          (SEE NOTE)     KJ/KG-MOL      K  
 FUEL        paraffin                     1.0000000  -1860600.000    298.150
 OXIDANT     N2O                          1.0000000         0.000      0.000

 O/F=   18.30000  %FUEL=  5.181347  R,EQ.RATIO= 0.499373  PHI,EQ.RATIO= 0.499373

                 CHAMBER   THROAT     EXIT
 Pinf/P            1.0000   1.8105   26.857
 P, BAR            29.384   16.230   1.0941
 T, K             2022.23  1788.58   993.45
 RHO, KG/CU M    5.1509 0 3.2167 0 3.9039-1
 H, KJ/KG         -96.234  -414.95 -1448.61
 U, KJ/KG         -666.71  -919.51 -1728.86
 G, KJ/KG        -16819.8 -15206.2 -9664.32
 S, KJ/(KG)(K)     8.2698   8.2698   8.2698

 M, (1/n)          29.474   29.474   29.474
 Cp, KJ/(KG)(K)    1.3742   1.3532   1.2285
 GAMMAs            1.2583   1.2634   1.2981
 SON VEL,M/SEC      847.3    798.4    603.2
 MACH NUMBER        0.000    1.000    2.727

 PERFORMANCE PARAMETERS

 Ae/At                      1.0000   4.0000
 CSTAR, M/SEC               1144.2   1144.2
 CF                         0.6978   1.4374
 Ivac, M/SEC                1430.4   1815.0
 Isp, M/SEC                  798.4   1644.6

 MASS FRACTIONS

 *CO             0.00008   *CO2            0.16604   HO2             0.00001
 H2O             0.05745   *NO             0.00638   NO2             0.00008
 *N2             0.60050   *O              0.00003   *OH             0.00057
 *O2             0.16884

  * THERMODYNAMIC PROPERTIES FITTED TO 20000.K

 NOTE. WEIGHT FRACTION OF FUEL IN TOTAL FUELS AND OF OXIDANT IN TOTAL OXIDANTS

           THEORETICAL ROCKET PERFORMANCE ASSUMING FROZEN COMPOSITION

 Pin =   440.9 PSIA
 CASE = _______________

             REACTANT                    WT FRACTION      ENERGY      TEMP
                                          (SEE NOTE)     KJ/KG-MOL      K  
 FUEL        paraffin                     1.0000000  -1860600.000    298.150
 OXIDANT     N2O                          1.0000000         0.000      0.000

 O/F=   18.30000  %FUEL=  5.181347  R,EQ.RATIO= 0.499373  PHI,EQ.RATIO= 0.499373

                 CHAMBER   THROAT     EXIT
 Pinf/P            1.0000   1.8105   26.857
 P, BAR            30.398   16.790   1.1318
 T, K             2022.28  1788.62   993.48
 RHO, KG/CU M    5.3284 0 3.3275 0 4.0385-1
 H, KJ/KG         -96.234  -414.96 -1448.64
 U, KJ/KG         -666.72  -919.53 -1728.90
 G, KJ/KG        -16800.8 -15189.5 -9655.09
 S, KJ/(KG)(K)     8.2603   8.2603   8.2603

 M, (1/n)          29.474   29.474   29.474
 Cp, KJ/(KG)(K)    1.3742   1.3532   1.2285
 GAMMAs            1.2583   1.2634   1.2981
 SON VEL,M/SEC      847.3    798.4    603.2
 MACH NUMBER        0.000    1.000    2.727

 PERFORMANCE PARAMETERS

 Ae/At                      1.0000   4.0000
 CSTAR, M/SEC               1144.2   1144.2
 CF                         0.6978   1.4374
 Ivac, M/SEC                1430.4   1815.0
 Isp, M/SEC                  798.4   1644.6

 MASS FRACTIONS

 *CO             0.00008   *CO2            0.16605   HO2             0.00001
 H2O             0.05746   *NO             0.00638   NO2             0.00008
 *N2             0.60050   *O              0.00003   *OH             0.00057
 *O2             0.16885

  * THERMODYNAMIC PROPERTIES FITTED TO 20000.K

 NOTE. WEIGHT FRACTION OF FUEL IN TOTAL FUELS AND OF OXIDANT IN TOTAL OXIDANTS

           THEORETICAL ROCKET PERFORMANCE ASSUMING FROZEN COMPOSITION

 Pin =   455.6 PSIA
 CASE = _______________

             REACTANT                    WT FRACTION      ENERGY      TEMP
                                          (SEE NOTE)     KJ/KG-MOL      K  
 FUEL        paraffin                     1.0000000  -1860600.000    298.150
 OXIDANT     N2O                          1.0000000         0.000      0.000

 O/F=   18.30000  %FUEL=  5.181347  R,EQ.RATIO= 0.499373  PHI,EQ.RATIO= 0.499373

                 CHAMBER   THROAT     EXIT
 Pinf/P            1.0000   1.8105   26.857
 P, BAR            31.411   17.349   1.1696
 T, K             2022.33  1788.67   993.51
 RHO, KG/CU M    5.5059 0 3.4384 0 4.1730-1
 H, KJ/KG         -96.234  -414.96 -1448.66
 U, KJ/KG         -666.73  -919.54 -1728.93
 G, KJ/KG        -16782.5 -15173.3 -9646.16
 S, KJ/(KG)(K)     8.2510   8.2510   8.2510

 M, (1/n)          29.474   29.474   29.474
 Cp, KJ/(KG)(K)    1.3742   1.3532   1.2285
 GAMMAs            1.2583   1.2634   1.2981
 SON VEL,M/SEC      847.3    798.4    603.2
 MACH NUMBER        0.000    1.000    2.727

 PERFORMANCE PARAMETERS

 Ae/At                      1.0000   4.0000
 CSTAR, M/SEC               1144.2   1144.2
 CF                         0.6978   1.4374
 Ivac, M/SEC                1430.4   1815.1
 Isp, M/SEC                  798.4   1644.6

 MASS FRACTIONS

 *CO             0.00008   *CO2            0.16605   HO2             0.00001
 H2O             0.05746   *NO             0.00639   NO2             0.00008
 *N2             0.60050   *O              0.00003   *OH             0.00057
 *O2             0.16885

  * THERMODYNAMIC PROPERTIES FITTED TO 20000.K

 NOTE. WEIGHT FRACTION OF FUEL IN TOTAL FUELS AND OF OXIDANT IN TOTAL OXIDANTS

           THEORETICAL ROCKET PERFORMANCE ASSUMING FROZEN COMPOSITION

 Pin =   470.3 PSIA
 CASE = _______________

             REACTANT                    WT FRACTION      ENERGY      TEMP
                                          (SEE NOTE)     KJ/KG-MOL      K  
 FUEL        paraffin                     1.0000000  -1860600.000    298.150
 OXIDANT     N2O                          1.0000000         0.000      0.000

 O/F=   18.30000  %FUEL=  5.181347  R,EQ.RATIO= 0.499373  PHI,EQ.RATIO= 0.499373

                 CHAMBER   THROAT     EXIT
 Pinf/P            1.0000   1.8105   26.857
 P, BAR            32.424   17.909   1.2073
 T, K             2022.37  1788.70   993.54
 RHO, KG/CU M    5.6834 0 3.5492 0 4.3075-1
 H, KJ/KG         -96.234  -414.97 -1448.69
 U, KJ/KG         -666.74  -919.56 -1728.96
 G, KJ/KG        -16764.7 -15157.6 -9637.51
 S, KJ/(KG)(K)     8.2421   8.2421   8.2421

 M, (1/n)          29.474   29.474   29.474
 Cp, KJ/(KG)(K)    1.3742   1.3532   1.2285
 GAMMAs            1.2583   1.2634   1.2981
 SON VEL,M/SEC      847.3    798.4    603.2
 MACH NUMBER        0.000    1.000    2.727

 PERFORMANCE PARAMETERS

 Ae/At                      1.0000   4.0000
 CSTAR, M/SEC               1144.2   1144.2
 CF                         0.6978   1.4374
 Ivac, M/SEC                1430.4   1815.1
 Isp, M/SEC                  798.4   1644.7

 MASS FRACTIONS

 *CO             0.00007   *CO2            0.16605   HO2             0.00001
 H2O             0.05746   *NO             0.00639   NO2             0.00008
 *N2             0.60050   *O              0.00003   *OH             0.00056
 *O2             0.16885

  * THERMODYNAMIC PROPERTIES FITTED TO 20000.K

 NOTE. WEIGHT FRACTION OF FUEL IN TOTAL FUELS AND OF OXIDANT IN TOTAL OXIDANTS

           THEORETICAL ROCKET PERFORMANCE ASSUMING FROZEN COMPOSITION

 Pin =   485.0 PSIA
 CASE = _______________

             REACTANT                    WT FRACTION      ENERGY      TEMP
                                          (SEE NOTE)     KJ/KG-MOL      K  
 FUEL        paraffin                     1.0000000  -1860600.000    298.150
 OXIDANT     N2O                          1.0000000         0.000      0.000

 O/F=   18.30000  %FUEL=  5.181347  R,EQ.RATIO= 0.499373  PHI,EQ.RATIO= 0.499373

                 CHAMBER   THROAT     EXIT
 Pinf/P            1.0000   1.8105   26.857
 P, BAR            33.437   18.469   1.2450
 T, K             2022.41  1788.74   993.57
 RHO, KG/CU M    5.8609 0 3.6601 0 4.4421-1
 H, KJ/KG         -96.234  -414.98 -1448.71
 U, KJ/KG         -666.75  -919.57 -1728.99
 G, KJ/KG        -16747.5 -15142.4 -9629.13
 S, KJ/(KG)(K)     8.2334   8.2334   8.2334

 M, (1/n)          29.474   29.474   29.474
 Cp, KJ/(KG)(K)    1.3742   1.3532   1.2285
 GAMMAs            1.2583   1.2634   1.2981
 SON VEL,M/SEC      847.3    798.4    603.2
 MACH NUMBER        0.000    1.000    2.727

 PERFORMANCE PARAMETERS

 Ae/At                      1.0000   4.0000
 CSTAR, M/SEC               1144.2   1144.2
 CF                         0.6978   1.4374
 Ivac, M/SEC                1430.4   1815.1
 Isp, M/SEC                  798.4   1644.7

 MASS FRACTIONS

 *CO             0.00007   *CO2            0.16605   HO2             0.00001
 H2O             0.05746   *NO             0.00639   NO2             0.00008
 *N2             0.60050   *O              0.00003   *OH             0.00056
 *O2             0.16885

  * THERMODYNAMIC PROPERTIES FITTED TO 20000.K

 NOTE. WEIGHT FRACTION OF FUEL IN TOTAL FUELS AND OF OXIDANT IN TOTAL OXIDANTS

           THEORETICAL ROCKET PERFORMANCE ASSUMING FROZEN COMPOSITION

 Pin =   499.7 PSIA
 CASE = _______________

             REACTANT                    WT FRACTION      ENERGY      TEMP
                                          (SEE NOTE)     KJ/KG-MOL      K  
 FUEL        paraffin                     1.0000000  -1860600.000    298.150
 OXIDANT     N2O                          1.0000000         0.000      0.000

 O/F=   18.30000  %FUEL=  5.181347  R,EQ.RATIO= 0.499373  PHI,EQ.RATIO= 0.499373

                 CHAMBER   THROAT     EXIT
 Pinf/P            1.0000   1.8105   26.857
 P, BAR            34.450   19.028   1.2828
 T, K             2022.45  1788.78   993.59
 RHO, KG/CU M    6.0384 0 3.7709 0 4.5766-1
 H, KJ/KG         -96.234  -414.98 -1448.73
 U, KJ/KG         -666.76  -919.59 -1729.02
 G, KJ/KG        -16730.8 -15127.6 -9620.99
 S, KJ/(KG)(K)     8.2250   8.2250   8.2250

 M, (1/n)          29.474   29.474   29.474
 Cp, KJ/(KG)(K)    1.3742   1.3532   1.2285
 GAMMAs            1.2583   1.2634   1.2981
 SON VEL,M/SEC      847.3    798.4    603.2
 MACH NUMBER        0.000    1.000    2.727

 PERFORMANCE PARAMETERS

 Ae/At                      1.0000   4.0000
 CSTAR, M/SEC               1144.2   1144.2
 CF                         0.6978   1.4374
 Ivac, M/SEC                1430.4   1815.1
 Isp, M/SEC                  798.4   1644.7

 MASS FRACTIONS

 *CO             0.00007   *CO2            0.16605   HO2             0.00001
 H2O             0.05747   *NO             0.00639   NO2             0.00008
 *N2             0.60050   *O              0.00003   *OH             0.00055
 *O2             0.16885

  * THERMODYNAMIC PROPERTIES FITTED TO 20000.K

 NOTE. WEIGHT FRACTION OF FUEL IN TOTAL FUELS AND OF OXIDANT IN TOTAL OXIDANTS

           THEORETICAL ROCKET PERFORMANCE ASSUMING FROZEN COMPOSITION

 Pin =   514.4 PSIA
 CASE = _______________

             REACTANT                    WT FRACTION      ENERGY      TEMP
                                          (SEE NOTE)     KJ/KG-MOL      K  
 FUEL        paraffin                     1.0000000  -1860600.000    298.150
 OXIDANT     N2O                          1.0000000         0.000      0.000

 O/F=   18.30000  %FUEL=  5.181347  R,EQ.RATIO= 0.499373  PHI,EQ.RATIO= 0.499373

                 CHAMBER   THROAT     EXIT
 Pinf/P            1.0000   1.8105   26.856
 P, BAR            35.464   19.588   1.3205
 T, K             2022.49  1788.81   993.62
 RHO, KG/CU M    6.2159 0 3.8818 0 4.7111-1
 H, KJ/KG         -96.234  -414.99 -1448.76
 U, KJ/KG         -666.77  -919.60 -1729.05
 G, KJ/KG        -16714.6 -15113.3 -9613.09
 S, KJ/(KG)(K)     8.2168   8.2168   8.2168

 M, (1/n)          29.474   29.474   29.474
 Cp, KJ/(KG)(K)    1.3742   1.3532   1.2285
 GAMMAs            1.2583   1.2634   1.2981
 SON VEL,M/SEC      847.3    798.4    603.2
 MACH NUMBER        0.000    1.000    2.727

 PERFORMANCE PARAMETERS

 Ae/At                      1.0000   4.0000
 CSTAR, M/SEC               1144.2   1144.2
 CF                         0.6978   1.4374
 Ivac, M/SEC                1430.4   1815.1
 Isp, M/SEC                  798.4   1644.7

 MASS FRACTIONS

 *CO             0.00007   *CO2            0.16606   HO2             0.00001
 H2O             0.05747   *NO             0.00639   NO2             0.00008
 *N2             0.60049   *O              0.00003   *OH             0.00055
 *O2             0.16885

  * THERMODYNAMIC PROPERTIES FITTED TO 20000.K

 NOTE. WEIGHT FRACTION OF FUEL IN TOTAL FUELS AND OF OXIDANT IN TOTAL OXIDANTS

           THEORETICAL ROCKET PERFORMANCE ASSUMING FROZEN COMPOSITION

 Pin =   529.1 PSIA
 CASE = _______________

             REACTANT                    WT FRACTION      ENERGY      TEMP
                                          (SEE NOTE)     KJ/KG-MOL      K  
 FUEL        paraffin                     1.0000000  -1860600.000    298.150
 OXIDANT     N2O                          1.0000000         0.000      0.000

 O/F=   18.30000  %FUEL=  5.181347  R,EQ.RATIO= 0.499373  PHI,EQ.RATIO= 0.499373

                 CHAMBER   THROAT     EXIT
 Pinf/P            1.0000   1.8105   26.856
 P, BAR            36.477   20.148   1.3582
 T, K             2022.52  1788.85   993.64
 RHO, KG/CU M    6.3934 0 3.9926 0 4.8456-1
 H, KJ/KG         -96.234  -414.99 -1448.78
 U, KJ/KG         -666.78  -919.61 -1729.08
 G, KJ/KG        -16698.8 -15099.4 -9605.41
 S, KJ/(KG)(K)     8.2088   8.2088   8.2088

 M, (1/n)          29.474   29.474   29.474
 Cp, KJ/(KG)(K)    1.3742   1.3532   1.2285
 GAMMAs            1.2583   1.2634   1.2981
 SON VEL,M/SEC      847.3    798.4    603.2
 MACH NUMBER        0.000    1.000    2.727

 PERFORMANCE PARAMETERS

 Ae/At                      1.0000   4.0000
 CSTAR, M/SEC               1144.2   1144.2
 CF                         0.6978   1.4374
 Ivac, M/SEC                1430.5   1815.1
 Isp, M/SEC                  798.4   1644.7

 MASS FRACTIONS

 *CO             0.00007   *CO2            0.16606   HO2             0.00001
 H2O             0.05747   *NO             0.00639   NO2             0.00009
 *N2             0.60049   *O              0.00003   *OH             0.00054
 *O2             0.16885

  * THERMODYNAMIC PROPERTIES FITTED TO 20000.K

 NOTE. WEIGHT FRACTION OF FUEL IN TOTAL FUELS AND OF OXIDANT IN TOTAL OXIDANTS

           THEORETICAL ROCKET PERFORMANCE ASSUMING FROZEN COMPOSITION

 Pin =   543.8 PSIA
 CASE = _______________

             REACTANT                    WT FRACTION      ENERGY      TEMP
                                          (SEE NOTE)     KJ/KG-MOL      K  
 FUEL        paraffin                     1.0000000  -1860600.000    298.150
 OXIDANT     N2O                          1.0000000         0.000      0.000

 O/F=   18.30000  %FUEL=  5.181347  R,EQ.RATIO= 0.499373  PHI,EQ.RATIO= 0.499373

                 CHAMBER   THROAT     EXIT
 Pinf/P            1.0000   1.8105   26.856
 P, BAR            37.490   20.707   1.3960
 T, K             2022.56  1788.88   993.66
 RHO, KG/CU M    6.5709 0 4.1035 0 4.9802-1
 H, KJ/KG         -96.234  -414.99 -1448.80
 U, KJ/KG         -666.78  -919.62 -1729.10
 G, KJ/KG        -16683.5 -15085.8 -9597.93
 S, KJ/(KG)(K)     8.2011   8.2011   8.2011

 M, (1/n)          29.474   29.474   29.474
 Cp, KJ/(KG)(K)    1.3742   1.3532   1.2285
 GAMMAs            1.2583   1.2634   1.2981
 SON VEL,M/SEC      847.3    798.5    603.2
 MACH NUMBER        0.000    1.000    2.727

 PERFORMANCE PARAMETERS

 Ae/At                      1.0000   4.0000
 CSTAR, M/SEC               1144.2   1144.2
 CF                         0.6978   1.4374
 Ivac, M/SEC                1430.5   1815.2
 Isp, M/SEC                  798.4   1644.7

 MASS FRACTIONS

 *CO             0.00007   *CO2            0.16606   HO2             0.00001
 H2O             0.05747   *NO             0.00639   NO2             0.00009
 *N2             0.60049   *O              0.00003   *OH             0.00054
 *O2             0.16885

  * THERMODYNAMIC PROPERTIES FITTED TO 20000.K

 NOTE. WEIGHT FRACTION OF FUEL IN TOTAL FUELS AND OF OXIDANT IN TOTAL OXIDANTS

           THEORETICAL ROCKET PERFORMANCE ASSUMING FROZEN COMPOSITION

 Pin =   558.4 PSIA
 CASE = _______________

             REACTANT                    WT FRACTION      ENERGY      TEMP
                                          (SEE NOTE)     KJ/KG-MOL      K  
 FUEL        paraffin                     1.0000000  -1860600.000    298.150
 OXIDANT     N2O                          1.0000000         0.000      0.000

 O/F=   18.30000  %FUEL=  5.181347  R,EQ.RATIO= 0.499373  PHI,EQ.RATIO= 0.499373

                 CHAMBER   THROAT     EXIT
 Pinf/P            1.0000   1.8105   26.856
 P, BAR            38.504   21.267   1.4337
 T, K             2022.59  1788.91   993.68
 RHO, KG/CU M    6.7484 0 4.2143 0 5.1147-1
 H, KJ/KG         -96.234  -415.00 -1448.82
 U, KJ/KG         -666.79  -919.64 -1729.13
 G, KJ/KG        -16668.5 -15072.6 -9590.66
 S, KJ/(KG)(K)     8.1936   8.1936   8.1936

 M, (1/n)          29.474   29.474   29.474
 Cp, KJ/(KG)(K)    1.3742   1.3532   1.2285
 GAMMAs            1.2583   1.2634   1.2981
 SON VEL,M/SEC      847.3    798.5    603.2
 MACH NUMBER        0.000    1.000    2.727

 PERFORMANCE PARAMETERS

 Ae/At                      1.0000   4.0000
 CSTAR, M/SEC               1144.3   1144.3
 CF                         0.6978   1.4374
 Ivac, M/SEC                1430.5   1815.2
 Isp, M/SEC                  798.5   1644.7

 MASS FRACTIONS

 *CO             0.00007   *CO2            0.16606   HO2             0.00001
 H2O             0.05747   *NO             0.00639   NO2             0.00009
 *N2             0.60049   *O              0.00003   *OH             0.00054
 *O2             0.16885

  * THERMODYNAMIC PROPERTIES FITTED TO 20000.K

 NOTE. WEIGHT FRACTION OF FUEL IN TOTAL FUELS AND OF OXIDANT IN TOTAL OXIDANTS

           THEORETICAL ROCKET PERFORMANCE ASSUMING FROZEN COMPOSITION

 Pin =   573.1 PSIA
 CASE = _______________

             REACTANT                    WT FRACTION      ENERGY      TEMP
                                          (SEE NOTE)     KJ/KG-MOL      K  
 FUEL        paraffin                     1.0000000  -1860600.000    298.150
 OXIDANT     N2O                          1.0000000         0.000      0.000

 O/F=   18.30000  %FUEL=  5.181347  R,EQ.RATIO= 0.499373  PHI,EQ.RATIO= 0.499373

                 CHAMBER   THROAT     EXIT
 Pinf/P            1.0000   1.8105   26.856
 P, BAR            39.517   21.827   1.4714
 T, K             2022.62  1788.94   993.70
 RHO, KG/CU M    6.9259 0 4.3252 0 5.2492-1
 H, KJ/KG         -96.234  -415.00 -1448.84
 U, KJ/KG         -666.80  -919.65 -1729.15
 G, KJ/KG        -16654.0 -15059.8 -9583.57
 S, KJ/(KG)(K)     8.1863   8.1863   8.1863

 M, (1/n)          29.475   29.475   29.475
 Cp, KJ/(KG)(K)    1.3742   1.3532   1.2285
 GAMMAs            1.2583   1.2634   1.2980
 SON VEL,M/SEC      847.3    798.5    603.2
 MACH NUMBER        0.000    1.000    2.727

 PERFORMANCE PARAMETERS

 Ae/At                      1.0000   4.0000
 CSTAR, M/SEC               1144.3   1144.3
 CF                         0.6978   1.4374
 Ivac, M/SEC                1430.5   1815.2
 Isp, M/SEC                  798.5   1644.8

 MASS FRACTIONS

 *CO             0.00007   *CO2            0.16606   HO2             0.00001
 H2O             0.05748   *NO             0.00639   NO2             0.00009
 *N2             0.60049   *O              0.00003   *OH             0.00053
 *O2             0.16885

  * THERMODYNAMIC PROPERTIES FITTED TO 20000.K

 NOTE. WEIGHT FRACTION OF FUEL IN TOTAL FUELS AND OF OXIDANT IN TOTAL OXIDANTS

           THEORETICAL ROCKET PERFORMANCE ASSUMING FROZEN COMPOSITION

 Pin =   587.8 PSIA
 CASE = _______________

             REACTANT                    WT FRACTION      ENERGY      TEMP
                                          (SEE NOTE)     KJ/KG-MOL      K  
 FUEL        paraffin                     1.0000000  -1860600.000    298.150
 OXIDANT     N2O                          1.0000000         0.000      0.000

 O/F=   18.30000  %FUEL=  5.181347  R,EQ.RATIO= 0.499373  PHI,EQ.RATIO= 0.499373

                 CHAMBER   THROAT     EXIT
 Pinf/P            1.0000   1.8105   26.856
 P, BAR            40.530   22.386   1.5092
 T, K             2022.66  1788.97   993.72
 RHO, KG/CU M    7.1034 0 4.4360 0 5.3837-1
 H, KJ/KG         -96.234  -415.01 -1448.86
 U, KJ/KG         -666.81  -919.66 -1729.18
 G, KJ/KG        -16639.8 -15047.2 -9576.65
 S, KJ/(KG)(K)     8.1791   8.1791   8.1791

 M, (1/n)          29.475   29.475   29.475
 Cp, KJ/(KG)(K)    1.3742   1.3532   1.2286
 GAMMAs            1.2583   1.2634   1.2980
 SON VEL,M/SEC      847.3    798.5    603.2
 MACH NUMBER        0.000    1.000    2.727

 PERFORMANCE PARAMETERS

 Ae/At                      1.0000   4.0000
 CSTAR, M/SEC               1144.3   1144.3
 CF                         0.6978   1.4374
 Ivac, M/SEC                1430.5   1815.2
 Isp, M/SEC                  798.5   1644.8

 MASS FRACTIONS

 *CO             0.00007   *CO2            0.16606   HO2             0.00001
 H2O             0.05748   *NO             0.00639   NO2             0.00009
 *N2             0.60049   *O              0.00003   *OH             0.00053
 *O2             0.16885

  * THERMODYNAMIC PROPERTIES FITTED TO 20000.K

 NOTE. WEIGHT FRACTION OF FUEL IN TOTAL FUELS AND OF OXIDANT IN TOTAL OXIDANTS

           THEORETICAL ROCKET PERFORMANCE ASSUMING FROZEN COMPOSITION

 Pin =   602.5 PSIA
 CASE = _______________

             REACTANT                    WT FRACTION      ENERGY      TEMP
                                          (SEE NOTE)     KJ/KG-MOL      K  
 FUEL        paraffin                     1.0000000  -1860600.000    298.150
 OXIDANT     N2O                          1.0000000         0.000      0.000

 O/F=   18.30000  %FUEL=  5.181347  R,EQ.RATIO= 0.499373  PHI,EQ.RATIO= 0.499373

                 CHAMBER   THROAT     EXIT
 Pinf/P            1.0000   1.8105   26.856
 P, BAR            41.543   22.946   1.5469
 T, K             2022.69  1789.00   993.74
 RHO, KG/CU M    7.2809 0 4.5468 0 5.5182-1
 H, KJ/KG         -96.234  -415.01 -1448.87
 U, KJ/KG         -666.81  -919.67 -1729.20
 G, KJ/KG        -16626.0 -15035.0 -9569.91
 S, KJ/(KG)(K)     8.1722   8.1722   8.1722

 M, (1/n)          29.475   29.475   29.475
 Cp, KJ/(KG)(K)    1.3742   1.3532   1.2286
 GAMMAs            1.2583   1.2634   1.2980
 SON VEL,M/SEC      847.3    798.5    603.2
 MACH NUMBER        0.000    1.000    2.727

 PERFORMANCE PARAMETERS

 Ae/At                     1.00000   4.0000
 CSTAR, M/SEC               1144.3   1144.3
 CF                         0.6978   1.4374
 Ivac, M/SEC                1430.5   1815.2
 Isp, M/SEC                  798.5   1644.8

 MASS FRACTIONS

 *CO             0.00007   *CO2            0.16606   HO2             0.00001
 H2O             0.05748   *NO             0.00639   NO2             0.00009
 *N2             0.60049   *O              0.00003   *OH             0.00053
 *O2             0.16885

  * THERMODYNAMIC PROPERTIES FITTED TO 20000.K

 NOTE. WEIGHT FRACTION OF FUEL IN TOTAL FUELS AND OF OXIDANT IN TOTAL OXIDANTS

           THEORETICAL ROCKET PERFORMANCE ASSUMING FROZEN COMPOSITION

 Pin =   617.2 PSIA
 CASE = _______________

             REACTANT                    WT FRACTION      ENERGY      TEMP
                                          (SEE NOTE)     KJ/KG-MOL      K  
 FUEL        paraffin                     1.0000000  -1860600.000    298.150
 OXIDANT     N2O                          1.0000000         0.000      0.000

 O/F=   18.30000  %FUEL=  5.181347  R,EQ.RATIO= 0.499373  PHI,EQ.RATIO= 0.499373

                 CHAMBER   THROAT     EXIT
 Pinf/P            1.0000   1.8105   26.856
 P, BAR            42.556   23.506   1.5846
 T, K             2022.72  1789.03   993.76
 RHO, KG/CU M    7.4584 0 4.6577 0 5.6528-1
 H, KJ/KG         -96.234  -415.01 -1448.89
 U, KJ/KG         -666.82  -919.68 -1729.22
 G, KJ/KG        -16612.4 -15023.1 -9563.33
 S, KJ/(KG)(K)     8.1654   8.1654   8.1654

 M, (1/n)          29.475   29.475   29.475
 Cp, KJ/(KG)(K)    1.3742   1.3532   1.2286
 GAMMAs            1.2583   1.2633   1.2980
 SON VEL,M/SEC      847.3    798.5    603.2
 MACH NUMBER        0.000    1.000    2.727

 PERFORMANCE PARAMETERS

 Ae/At                      1.0000   4.0000
 CSTAR, M/SEC               1144.3   1144.3
 CF                         0.6978   1.4374
 Ivac, M/SEC                1430.5   1815.2
 Isp, M/SEC                  798.5   1644.8

 MASS FRACTIONS

 *CO             0.00007   *CO2            0.16606   HO2             0.00001
 H2O             0.05748   *NO             0.00639   NO2             0.00009
 *N2             0.60049   *O              0.00003   *OH             0.00052
 *O2             0.16885

  * THERMODYNAMIC PROPERTIES FITTED TO 20000.K

 NOTE. WEIGHT FRACTION OF FUEL IN TOTAL FUELS AND OF OXIDANT IN TOTAL OXIDANTS

           THEORETICAL ROCKET PERFORMANCE ASSUMING FROZEN COMPOSITION

 Pin =   631.9 PSIA
 CASE = _______________

             REACTANT                    WT FRACTION      ENERGY      TEMP
                                          (SEE NOTE)     KJ/KG-MOL      K  
 FUEL        paraffin                     1.0000000  -1860600.000    298.150
 OXIDANT     N2O                          1.0000000         0.000      0.000

 O/F=   18.30000  %FUEL=  5.181347  R,EQ.RATIO= 0.499373  PHI,EQ.RATIO= 0.499373

                 CHAMBER   THROAT     EXIT
 Pinf/P            1.0000   1.8105   26.856
 P, BAR            43.570   24.065   1.6224
 T, K             2022.74  1789.05   993.78
 RHO, KG/CU M    7.6359 0 4.7685 0 5.7873-1
 H, KJ/KG         -96.234  -415.02 -1448.91
 U, KJ/KG         -666.83  -919.69 -1729.24
 G, KJ/KG        -16599.3 -15011.4 -9556.90
 S, KJ/(KG)(K)     8.1587   8.1587   8.1587

 M, (1/n)          29.475   29.475   29.475
 Cp, KJ/(KG)(K)    1.3742   1.3533   1.2286
 GAMMAs            1.2583   1.2633   1.2980
 SON VEL,M/SEC      847.3    798.5    603.2
 MACH NUMBER        0.000    1.000    2.727

 PERFORMANCE PARAMETERS

 Ae/At                      1.0000   4.0000
 CSTAR, M/SEC               1144.3   1144.3
 CF                         0.6978   1.4374
 Ivac, M/SEC                1430.5   1815.2
 Isp, M/SEC                  798.5   1644.8

 MASS FRACTIONS

 *CO             0.00006   *CO2            0.16607   HO2             0.00001
 H2O             0.05748   *NO             0.00639   NO2             0.00009
 *N2             0.60049   *O              0.00003   *OH             0.00052
 *O2             0.16885

  * THERMODYNAMIC PROPERTIES FITTED TO 20000.K

 NOTE. WEIGHT FRACTION OF FUEL IN TOTAL FUELS AND OF OXIDANT IN TOTAL OXIDANTS

           THEORETICAL ROCKET PERFORMANCE ASSUMING FROZEN COMPOSITION

 Pin =   646.6 PSIA
 CASE = _______________

             REACTANT                    WT FRACTION      ENERGY      TEMP
                                          (SEE NOTE)     KJ/KG-MOL      K  
 FUEL        paraffin                     1.0000000  -1860600.000    298.150
 OXIDANT     N2O                          1.0000000         0.000      0.000

 O/F=   18.30000  %FUEL=  5.181347  R,EQ.RATIO= 0.499373  PHI,EQ.RATIO= 0.499373

                 CHAMBER   THROAT     EXIT
 Pinf/P            1.0000   1.8105   26.855
 P, BAR            44.583   24.625   1.6601
 T, K             2022.77  1789.08   993.80
 RHO, KG/CU M    7.8134 0 4.8794 0 5.9218-1
 H, KJ/KG         -96.234  -415.02 -1448.92
 U, KJ/KG         -666.83  -919.70 -1729.26
 G, KJ/KG        -16586.4 -15000.0 -9550.62
 S, KJ/(KG)(K)     8.1522   8.1522   8.1522

 M, (1/n)          29.475   29.475   29.475
 Cp, KJ/(KG)(K)    1.3742   1.3533   1.2286
 GAMMAs            1.2583   1.2633   1.2980
 SON VEL,M/SEC      847.3    798.5    603.2
 MACH NUMBER        0.000    1.000    2.727

 PERFORMANCE PARAMETERS

 Ae/At                      1.0000   4.0000
 CSTAR, M/SEC               1144.3   1144.3
 CF                         0.6978   1.4374
 Ivac, M/SEC                1430.5   1815.2
 Isp, M/SEC                  798.5   1644.8

 MASS FRACTIONS

 *CO             0.00006   *CO2            0.16607   HO2             0.00001
 H2O             0.05749   *NO             0.00639   NO2             0.00009
 *N2             0.60049   *O              0.00003   *OH             0.00052
 *O2             0.16885

  * THERMODYNAMIC PROPERTIES FITTED TO 20000.K

 NOTE. WEIGHT FRACTION OF FUEL IN TOTAL FUELS AND OF OXIDANT IN TOTAL OXIDANTS

           THEORETICAL ROCKET PERFORMANCE ASSUMING FROZEN COMPOSITION

 Pin =   661.3 PSIA
 CASE = _______________

             REACTANT                    WT FRACTION      ENERGY      TEMP
                                          (SEE NOTE)     KJ/KG-MOL      K  
 FUEL        paraffin                     1.0000000  -1860600.000    298.150
 OXIDANT     N2O                          1.0000000         0.000      0.000

 O/F=   18.30000  %FUEL=  5.181347  R,EQ.RATIO= 0.499373  PHI,EQ.RATIO= 0.499373

                 CHAMBER   THROAT     EXIT
 Pinf/P            1.0000   1.8105   26.855
 P, BAR            45.596   25.185   1.6978
 T, K             2022.80  1789.10   993.82
 RHO, KG/CU M    7.9909 0 4.9902 0 6.0563-1
 H, KJ/KG         -96.234  -415.02 -1448.94
 U, KJ/KG         -666.84  -919.71 -1729.28
 G, KJ/KG        -16573.8 -14988.9 -9544.47
 S, KJ/(KG)(K)     8.1459   8.1459   8.1459

 M, (1/n)          29.475   29.475   29.475
 Cp, KJ/(KG)(K)    1.3742   1.3533   1.2286
 GAMMAs            1.2583   1.2633   1.2980
 SON VEL,M/SEC      847.3    798.5    603.2
 MACH NUMBER        0.000    1.000    2.727

 PERFORMANCE PARAMETERS

 Ae/At                      1.0000   4.0000
 CSTAR, M/SEC               1144.3   1144.3
 CF                         0.6978   1.4374
 Ivac, M/SEC                1430.5   1815.3
 Isp, M/SEC                  798.5   1644.8

 MASS FRACTIONS

 *CO             0.00006   *CO2            0.16607   HO2             0.00001
 H2O             0.05749   *NO             0.00639   NO2             0.00010
 *N2             0.60049   *O              0.00003   *OH             0.00052
 *O2             0.16885

  * THERMODYNAMIC PROPERTIES FITTED TO 20000.K

 NOTE. WEIGHT FRACTION OF FUEL IN TOTAL FUELS AND OF OXIDANT IN TOTAL OXIDANTS

           THEORETICAL ROCKET PERFORMANCE ASSUMING FROZEN COMPOSITION

 Pin =   676.0 PSIA
 CASE = _______________

             REACTANT                    WT FRACTION      ENERGY      TEMP
                                          (SEE NOTE)     KJ/KG-MOL      K  
 FUEL        paraffin                     1.0000000  -1860600.000    298.150
 OXIDANT     N2O                          1.0000000         0.000      0.000

 O/F=   18.30000  %FUEL=  5.181347  R,EQ.RATIO= 0.499373  PHI,EQ.RATIO= 0.499373

                 CHAMBER   THROAT     EXIT
 Pinf/P            1.0000   1.8105   26.855
 P, BAR            46.609   25.744   1.7356
 T, K             2022.83  1789.13   993.83
 RHO, KG/CU M    8.1683 0 5.1010 0 6.1908-1
 H, KJ/KG         -96.234  -415.03 -1448.96
 U, KJ/KG         -666.85  -919.72 -1729.30
 G, KJ/KG        -16561.4 -14978.0 -9538.46
 S, KJ/(KG)(K)     8.1397   8.1397   8.1397

 M, (1/n)          29.475   29.475   29.475
 Cp, KJ/(KG)(K)    1.3742   1.3533   1.2286
 GAMMAs            1.2583   1.2633   1.2980
 SON VEL,M/SEC      847.3    798.5    603.2
 MACH NUMBER        0.000    1.000    2.727

 PERFORMANCE PARAMETERS

 Ae/At                      1.0000   4.0000
 CSTAR, M/SEC               1144.3   1144.3
 CF                         0.6978   1.4374
 Ivac, M/SEC                1430.5   1815.3
 Isp, M/SEC                  798.5   1644.8

 MASS FRACTIONS

 *CO             0.00006   *CO2            0.16607   HO2             0.00001
 H2O             0.05749   *NO             0.00639   NO2             0.00010
 *N2             0.60049   *O              0.00002   *OH             0.00051
 *O2             0.16885

  * THERMODYNAMIC PROPERTIES FITTED TO 20000.K

 NOTE. WEIGHT FRACTION OF FUEL IN TOTAL FUELS AND OF OXIDANT IN TOTAL OXIDANTS

           THEORETICAL ROCKET PERFORMANCE ASSUMING FROZEN COMPOSITION

 Pin =   690.7 PSIA
 CASE = _______________

             REACTANT                    WT FRACTION      ENERGY      TEMP
                                          (SEE NOTE)     KJ/KG-MOL      K  
 FUEL        paraffin                     1.0000000  -1860600.000    298.150
 OXIDANT     N2O                          1.0000000         0.000      0.000

 O/F=   18.30000  %FUEL=  5.181347  R,EQ.RATIO= 0.499373  PHI,EQ.RATIO= 0.499373

                 CHAMBER   THROAT     EXIT
 Pinf/P            1.0000   1.8105   26.855
 P, BAR            47.623   26.304   1.7733
 T, K             2022.85  1789.15   993.85
 RHO, KG/CU M    8.3458 0 5.2119 0 6.3253-1
 H, KJ/KG         -96.234  -415.03 -1448.97
 U, KJ/KG         -666.85  -919.72 -1729.32
 G, KJ/KG        -16549.4 -14967.3 -9532.58
 S, KJ/(KG)(K)     8.1336   8.1336   8.1336

 M, (1/n)          29.475   29.475   29.475
 Cp, KJ/(KG)(K)    1.3743   1.3533   1.2286
 GAMMAs            1.2583   1.2633   1.2980
 SON VEL,M/SEC      847.3    798.5    603.2
 MACH NUMBER        0.000    1.000    2.727

 PERFORMANCE PARAMETERS

 Ae/At                      1.0000   4.0000
 CSTAR, M/SEC               1144.3   1144.3
 CF                         0.6978   1.4374
 Ivac, M/SEC                1430.6   1815.3
 Isp, M/SEC                  798.5   1644.8

 MASS FRACTIONS

 *CO             0.00006   *CO2            0.16607   HO2             0.00001
 H2O             0.05749   *NO             0.00639   NO2             0.00010
 *N2             0.60049   *O              0.00002   *OH             0.00051
 *O2             0.16885

  * THERMODYNAMIC PROPERTIES FITTED TO 20000.K

 NOTE. WEIGHT FRACTION OF FUEL IN TOTAL FUELS AND OF OXIDANT IN TOTAL OXIDANTS

           THEORETICAL ROCKET PERFORMANCE ASSUMING FROZEN COMPOSITION

 Pin =   705.4 PSIA
 CASE = _______________

             REACTANT                    WT FRACTION      ENERGY      TEMP
                                          (SEE NOTE)     KJ/KG-MOL      K  
 FUEL        paraffin                     1.0000000  -1860600.000    298.150
 OXIDANT     N2O                          1.0000000         0.000      0.000

 O/F=   18.30000  %FUEL=  5.181347  R,EQ.RATIO= 0.499373  PHI,EQ.RATIO= 0.499373

                 CHAMBER   THROAT     EXIT
 Pinf/P            1.0000   1.8105   26.855
 P, BAR            48.636   26.864   1.8111
 T, K             2022.88  1789.17   993.87
 RHO, KG/CU M    8.5233 0 5.3227 0 6.4599-1
 H, KJ/KG         -96.234  -415.03 -1448.98
 U, KJ/KG         -666.86  -919.73 -1729.34
 G, KJ/KG        -16537.6 -14956.9 -9526.82
 S, KJ/(KG)(K)     8.1277   8.1277   8.1277

 M, (1/n)          29.475   29.475   29.475
 Cp, KJ/(KG)(K)    1.3743   1.3533   1.2286
 GAMMAs            1.2583   1.2633   1.2980
 SON VEL,M/SEC      847.4    798.5    603.2
 MACH NUMBER        0.000    1.000    2.727

 PERFORMANCE PARAMETERS

 Ae/At                      1.0000   4.0000
 CSTAR, M/SEC               1144.3   1144.3
 CF                         0.6978   1.4374
 Ivac, M/SEC                1430.6   1815.3
 Isp, M/SEC                  798.5   1644.8

 MASS FRACTIONS

 *CO             0.00006   *CO2            0.16607   HO2             0.00001
 H2O             0.05749   *NO             0.00639   NO2             0.00010
 *N2             0.60049   *O              0.00002   *OH             0.00051
 *O2             0.16885

  * THERMODYNAMIC PROPERTIES FITTED TO 20000.K

 NOTE. WEIGHT FRACTION OF FUEL IN TOTAL FUELS AND OF OXIDANT IN TOTAL OXIDANTS

           THEORETICAL ROCKET PERFORMANCE ASSUMING FROZEN COMPOSITION

 Pin =   367.4 PSIA
 CASE = _______________

             REACTANT                    WT FRACTION      ENERGY      TEMP
                                          (SEE NOTE)     KJ/KG-MOL      K  
 FUEL        paraffin                     1.0000000  -1860600.000    298.150
 OXIDANT     N2O                          1.0000000         0.000      0.000

 O/F=   18.50000  %FUEL=  5.128205  R,EQ.RATIO= 0.493974  PHI,EQ.RATIO= 0.493974

                 CHAMBER   THROAT     EXIT
 Pinf/P            1.0000   1.8109   26.899
 P, BAR            25.331   13.988  0.94171
 T, K             2007.91  1775.42   984.56
 RHO, KG/CU M    4.4719 0 2.7928 0 3.3904-1
 H, KJ/KG         -95.247  -411.79 -1437.69
 U, KJ/KG         -661.70  -912.66 -1715.45
 G, KJ/KG        -16760.7 -15147.6 -9609.41
 S, KJ/(KG)(K)     8.2999   8.2999   8.2999

 M, (1/n)          29.472   29.472   29.472
 Cp, KJ/(KG)(K)    1.3717   1.3506   1.2254
 GAMMAs            1.2589   1.2640   1.2991
 SON VEL,M/SEC      844.5    795.7    600.7
 MACH NUMBER        0.000    1.000    2.728

 PERFORMANCE PARAMETERS

 Ae/At                      1.0000   4.0000
 CSTAR, M/SEC               1139.9   1139.9
 CF                         0.6980   1.4374
 Ivac, M/SEC                1425.2   1808.1
 Isp, M/SEC                  795.7   1638.6

 MASS FRACTIONS

 *CO             0.00007   *CO2            0.16435   HO2             0.00001
 H2O             0.05687   *NO             0.00618   NO2             0.00007
 *N2             0.60093   *O              0.00003   *OH             0.00056
 *O2             0.17092

  * THERMODYNAMIC PROPERTIES FITTED TO 20000.K

 NOTE. WEIGHT FRACTION OF FUEL IN TOTAL FUELS AND OF OXIDANT IN TOTAL OXIDANTS

           THEORETICAL ROCKET PERFORMANCE ASSUMING FROZEN COMPOSITION

 Pin =   382.1 PSIA
 CASE = _______________

             REACTANT                    WT FRACTION      ENERGY      TEMP
                                          (SEE NOTE)     KJ/KG-MOL      K  
 FUEL        paraffin                     1.0000000  -1860600.000    298.150
 OXIDANT     N2O                          1.0000000         0.000      0.000

 O/F=   18.50000  %FUEL=  5.128205  R,EQ.RATIO= 0.493974  PHI,EQ.RATIO= 0.493974

                 CHAMBER   THROAT     EXIT
 Pinf/P            1.0000   1.8109   26.899
 P, BAR            26.345   14.548  0.97938
 T, K             2007.96  1775.46   984.59
 RHO, KG/CU M    4.6507 0 2.9045 0 3.5260-1
 H, KJ/KG         -95.247  -411.80 -1437.72
 U, KJ/KG         -661.71  -912.68 -1715.49
 G, KJ/KG        -16738.9 -15128.3 -9598.82
 S, KJ/(KG)(K)     8.2888   8.2888   8.2888

 M, (1/n)          29.473   29.473   29.473
 Cp, KJ/(KG)(K)    1.3717   1.3506   1.2254
 GAMMAs            1.2589   1.2640   1.2991
 SON VEL,M/SEC      844.5    795.7    600.7
 MACH NUMBER        0.000    1.000    2.728

 PERFORMANCE PARAMETERS

 Ae/At                     1.00000   4.0000
 CSTAR, M/SEC               1139.9   1139.9
 CF                         0.6980   1.4374
 Ivac, M/SEC                1425.2   1808.1
 Isp, M/SEC                  795.7   1638.6

 MASS FRACTIONS

 *CO             0.00007   *CO2            0.16435   HO2             0.00001
 H2O             0.05688   *NO             0.00618   NO2             0.00007
 *N2             0.60093   *O              0.00003   *OH             0.00055
 *O2             0.17092

  * THERMODYNAMIC PROPERTIES FITTED TO 20000.K

 NOTE. WEIGHT FRACTION OF FUEL IN TOTAL FUELS AND OF OXIDANT IN TOTAL OXIDANTS

           THEORETICAL ROCKET PERFORMANCE ASSUMING FROZEN COMPOSITION

 Pin =   396.8 PSIA
 CASE = _______________

             REACTANT                    WT FRACTION      ENERGY      TEMP
                                          (SEE NOTE)     KJ/KG-MOL      K  
 FUEL        paraffin                     1.0000000  -1860600.000    298.150
 OXIDANT     N2O                          1.0000000         0.000      0.000

 O/F=   18.50000  %FUEL=  5.128205  R,EQ.RATIO= 0.493974  PHI,EQ.RATIO= 0.493974

                 CHAMBER   THROAT     EXIT
 Pinf/P            1.0000   1.8109   26.899
 P, BAR            27.358   15.107   1.0171
 T, K             2008.01  1775.51   984.62
 RHO, KG/CU M    4.8295 0 3.0161 0 3.6615-1
 H, KJ/KG         -95.247  -411.81 -1437.75
 U, KJ/KG         -661.72  -912.69 -1715.52
 G, KJ/KG        -16717.9 -15109.8 -9588.63
 S, KJ/(KG)(K)     8.2782   8.2782   8.2782

 M, (1/n)          29.473   29.473   29.473
 Cp, KJ/(KG)(K)    1.3717   1.3506   1.2254
 GAMMAs            1.2589   1.2640   1.2991
 SON VEL,M/SEC      844.5    795.7    600.7
 MACH NUMBER        0.000    1.000    2.728

 PERFORMANCE PARAMETERS

 Ae/At                      1.0000   4.0000
 CSTAR, M/SEC               1140.0   1140.0
 CF                         0.6980   1.4374
 Ivac, M/SEC                1425.2   1808.1
 Isp, M/SEC                  795.7   1638.6

 MASS FRACTIONS

 *CO             0.00007   *CO2            0.16435   HO2             0.00001
 H2O             0.05688   *NO             0.00618   NO2             0.00007
 *N2             0.60093   *O              0.00003   *OH             0.00055
 *O2             0.17092

  * THERMODYNAMIC PROPERTIES FITTED TO 20000.K

 NOTE. WEIGHT FRACTION OF FUEL IN TOTAL FUELS AND OF OXIDANT IN TOTAL OXIDANTS

           THEORETICAL ROCKET PERFORMANCE ASSUMING FROZEN COMPOSITION

 Pin =   411.5 PSIA
 CASE = _______________

             REACTANT                    WT FRACTION      ENERGY      TEMP
                                          (SEE NOTE)     KJ/KG-MOL      K  
 FUEL        paraffin                     1.0000000  -1860600.000    298.150
 OXIDANT     N2O                          1.0000000         0.000      0.000

 O/F=   18.50000  %FUEL=  5.128205  R,EQ.RATIO= 0.493974  PHI,EQ.RATIO= 0.493974

                 CHAMBER   THROAT     EXIT
 Pinf/P            1.0000   1.8109   26.899
 P, BAR            28.371   15.667   1.0547
 T, K             2008.05  1775.55   984.65
 RHO, KG/CU M    5.0082 0 3.1278 0 3.7970-1
 H, KJ/KG         -95.247  -411.81 -1437.78
 U, KJ/KG         -661.74  -912.71 -1715.56
 G, KJ/KG        -16697.7 -15092.0 -9578.81
 S, KJ/(KG)(K)     8.2679   8.2679   8.2679

 M, (1/n)          29.473   29.473   29.473
 Cp, KJ/(KG)(K)    1.3718   1.3507   1.2254
 GAMMAs            1.2589   1.2640   1.2991
 SON VEL,M/SEC      844.5    795.7    600.7
 MACH NUMBER        0.000    1.000    2.728

 PERFORMANCE PARAMETERS

 Ae/At                     1.00000   4.0000
 CSTAR, M/SEC               1140.0   1140.0
 CF                         0.6980   1.4374
 Ivac, M/SEC                1425.2   1808.1
 Isp, M/SEC                  795.7   1638.6

 MASS FRACTIONS

 *CO             0.00007   *CO2            0.16435   HO2             0.00001
 H2O             0.05688   *NO             0.00618   NO2             0.00008
 *N2             0.60093   *O              0.00003   *OH             0.00054
 *O2             0.17092

  * THERMODYNAMIC PROPERTIES FITTED TO 20000.K

 NOTE. WEIGHT FRACTION OF FUEL IN TOTAL FUELS AND OF OXIDANT IN TOTAL OXIDANTS

           THEORETICAL ROCKET PERFORMANCE ASSUMING FROZEN COMPOSITION

 Pin =   426.2 PSIA
 CASE = _______________

             REACTANT                    WT FRACTION      ENERGY      TEMP
                                          (SEE NOTE)     KJ/KG-MOL      K  
 FUEL        paraffin                     1.0000000  -1860600.000    298.150
 OXIDANT     N2O                          1.0000000         0.000      0.000

 O/F=   18.50000  %FUEL=  5.128205  R,EQ.RATIO= 0.493974  PHI,EQ.RATIO= 0.493974

                 CHAMBER   THROAT     EXIT
 Pinf/P            1.0000   1.8109   26.899
 P, BAR            29.384   16.226   1.0924
 T, K             2008.10  1775.59   984.68
 RHO, KG/CU M    5.1870 0 3.2394 0 3.9326-1
 H, KJ/KG         -95.247  -411.82 -1437.81
 U, KJ/KG         -661.75  -912.73 -1715.59
 G, KJ/KG        -16678.2 -15074.7 -9569.32
 S, KJ/(KG)(K)     8.2580   8.2580   8.2580

 M, (1/n)          29.473   29.473   29.473
 Cp, KJ/(KG)(K)    1.3718   1.3507   1.2254
 GAMMAs            1.2589   1.2640   1.2991
 SON VEL,M/SEC      844.5    795.7    600.7
 MACH NUMBER        0.000    1.000    2.728

 PERFORMANCE PARAMETERS

 Ae/At                      1.0000   4.0000
 CSTAR, M/SEC               1140.0   1140.0
 CF                         0.6980   1.4374
 Ivac, M/SEC                1425.2   1808.2
 Isp, M/SEC                  795.7   1638.6

 MASS FRACTIONS

 *CO             0.00007   *CO2            0.16436   HO2             0.00001
 H2O             0.05688   *NO             0.00618   NO2             0.00008
 *N2             0.60093   *O              0.00003   *OH             0.00054
 *O2             0.17092

  * THERMODYNAMIC PROPERTIES FITTED TO 20000.K

 NOTE. WEIGHT FRACTION OF FUEL IN TOTAL FUELS AND OF OXIDANT IN TOTAL OXIDANTS

           THEORETICAL ROCKET PERFORMANCE ASSUMING FROZEN COMPOSITION

 Pin =   440.9 PSIA
 CASE = _______________

             REACTANT                    WT FRACTION      ENERGY      TEMP
                                          (SEE NOTE)     KJ/KG-MOL      K  
 FUEL        paraffin                     1.0000000  -1860600.000    298.150
 OXIDANT     N2O                          1.0000000         0.000      0.000

 O/F=   18.50000  %FUEL=  5.128205  R,EQ.RATIO= 0.493974  PHI,EQ.RATIO= 0.493974

                 CHAMBER   THROAT     EXIT
 Pinf/P            1.0000   1.8109   26.898
 P, BAR            30.398   16.786   1.1301
 T, K             2008.14  1775.63   984.71
 RHO, KG/CU M    5.3658 0 3.3511 0 4.0681-1
 H, KJ/KG         -95.247  -411.82 -1437.83
 U, KJ/KG         -661.76  -912.74 -1715.62
 G, KJ/KG        -16659.3 -15058.1 -9560.16
 S, KJ/(KG)(K)     8.2485   8.2485   8.2485

 M, (1/n)          29.473   29.473   29.473
 Cp, KJ/(KG)(K)    1.3718   1.3507   1.2255
 GAMMAs            1.2589   1.2640   1.2990
 SON VEL,M/SEC      844.5    795.7    600.7
 MACH NUMBER        0.000    1.000    2.728

 PERFORMANCE PARAMETERS

 Ae/At                     1.00000   4.0000
 CSTAR, M/SEC               1140.0   1140.0
 CF                         0.6980   1.4374
 Ivac, M/SEC                1425.2   1808.2
 Isp, M/SEC                  795.7   1638.6

 MASS FRACTIONS

 *CO             0.00007   *CO2            0.16436   HO2             0.00001
 H2O             0.05689   *NO             0.00618   NO2             0.00008
 *N2             0.60093   *O              0.00003   *OH             0.00053
 *O2             0.17093

  * THERMODYNAMIC PROPERTIES FITTED TO 20000.K

 NOTE. WEIGHT FRACTION OF FUEL IN TOTAL FUELS AND OF OXIDANT IN TOTAL OXIDANTS

           THEORETICAL ROCKET PERFORMANCE ASSUMING FROZEN COMPOSITION

 Pin =   455.6 PSIA
 CASE = _______________

             REACTANT                    WT FRACTION      ENERGY      TEMP
                                          (SEE NOTE)     KJ/KG-MOL      K  
 FUEL        paraffin                     1.0000000  -1860600.000    298.150
 OXIDANT     N2O                          1.0000000         0.000      0.000

 O/F=   18.50000  %FUEL=  5.128205  R,EQ.RATIO= 0.493974  PHI,EQ.RATIO= 0.493974

                 CHAMBER   THROAT     EXIT
 Pinf/P            1.0000   1.8109   26.898
 P, BAR            31.411   17.346   1.1678
 T, K             2008.18  1775.67   984.73
 RHO, KG/CU M    5.5445 0 3.4627 0 4.2036-1
 H, KJ/KG         -95.247  -411.83 -1437.86
 U, KJ/KG         -661.77  -912.76 -1715.65
 G, KJ/KG        -16641.1 -15042.0 -9551.29
 S, KJ/(KG)(K)     8.2392   8.2392   8.2392

 M, (1/n)          29.473   29.473   29.473
 Cp, KJ/(KG)(K)    1.3718   1.3507   1.2255
 GAMMAs            1.2589   1.2640   1.2990
 SON VEL,M/SEC      844.5    795.7    600.7
 MACH NUMBER        0.000    1.000    2.728

 PERFORMANCE PARAMETERS

 Ae/At                     1.00000   4.0000
 CSTAR, M/SEC               1140.0   1140.0
 CF                         0.6980   1.4374
 Ivac, M/SEC                1425.2   1808.2
 Isp, M/SEC                  795.7   1638.7

 MASS FRACTIONS

 *CO             0.00007   *CO2            0.16436   HO2             0.00001
 H2O             0.05689   *NO             0.00619   NO2             0.00008
 *N2             0.60093   *O              0.00003   *OH             0.00053
 *O2             0.17093

  * THERMODYNAMIC PROPERTIES FITTED TO 20000.K

 NOTE. WEIGHT FRACTION OF FUEL IN TOTAL FUELS AND OF OXIDANT IN TOTAL OXIDANTS

           THEORETICAL ROCKET PERFORMANCE ASSUMING FROZEN COMPOSITION

 Pin =   470.3 PSIA
 CASE = _______________

             REACTANT                    WT FRACTION      ENERGY      TEMP
                                          (SEE NOTE)     KJ/KG-MOL      K  
 FUEL        paraffin                     1.0000000  -1860600.000    298.150
 OXIDANT     N2O                          1.0000000         0.000      0.000

 O/F=   18.50000  %FUEL=  5.128205  R,EQ.RATIO= 0.493974  PHI,EQ.RATIO= 0.493974

                 CHAMBER   THROAT     EXIT
 Pinf/P            1.0000   1.8109   26.898
 P, BAR            32.424   17.905   1.2054
 T, K             2008.22  1775.71   984.76
 RHO, KG/CU M    5.7233 0 3.5743 0 4.3391-1
 H, KJ/KG         -95.247  -411.83 -1437.88
 U, KJ/KG         -661.77  -912.77 -1715.68
 G, KJ/KG        -16623.4 -15026.4 -9542.70
 S, KJ/(KG)(K)     8.2303   8.2303   8.2303

 M, (1/n)          29.473   29.473   29.473
 Cp, KJ/(KG)(K)    1.3718   1.3507   1.2255
 GAMMAs            1.2589   1.2640   1.2990
 SON VEL,M/SEC      844.5    795.7    600.7
 MACH NUMBER        0.000    1.000    2.728

 PERFORMANCE PARAMETERS

 Ae/At                      1.0000   4.0000
 CSTAR, M/SEC               1140.0   1140.0
 CF                         0.6980   1.4374
 Ivac, M/SEC                1425.3   1808.2
 Isp, M/SEC                  795.7   1638.7

 MASS FRACTIONS

 *CO             0.00007   *CO2            0.16436   HO2             0.00001
 H2O             0.05689   *NO             0.00619   NO2             0.00008
 *N2             0.60093   *O              0.00003   *OH             0.00052
 *O2             0.17093

  * THERMODYNAMIC PROPERTIES FITTED TO 20000.K

 NOTE. WEIGHT FRACTION OF FUEL IN TOTAL FUELS AND OF OXIDANT IN TOTAL OXIDANTS

           THEORETICAL ROCKET PERFORMANCE ASSUMING FROZEN COMPOSITION

 Pin =   485.0 PSIA
 CASE = _______________

             REACTANT                    WT FRACTION      ENERGY      TEMP
                                          (SEE NOTE)     KJ/KG-MOL      K  
 FUEL        paraffin                     1.0000000  -1860600.000    298.150
 OXIDANT     N2O                          1.0000000         0.000      0.000

 O/F=   18.50000  %FUEL=  5.128205  R,EQ.RATIO= 0.493974  PHI,EQ.RATIO= 0.493974

                 CHAMBER   THROAT     EXIT
 Pinf/P            1.0000   1.8109   26.898
 P, BAR            33.437   18.465   1.2431
 T, K             2008.26  1775.74   984.78
 RHO, KG/CU M    5.9020 0 3.6860 0 4.4747-1
 H, KJ/KG         -95.247  -411.84 -1437.90
 U, KJ/KG         -661.78  -912.78 -1715.71
 G, KJ/KG        -16606.3 -15011.3 -9534.37
 S, KJ/(KG)(K)     8.2216   8.2216   8.2216

 M, (1/n)          29.473   29.473   29.473
 Cp, KJ/(KG)(K)    1.3718   1.3507   1.2255
 GAMMAs            1.2589   1.2640   1.2990
 SON VEL,M/SEC      844.5    795.7    600.7
 MACH NUMBER        0.000    1.000    2.728

 PERFORMANCE PARAMETERS

 Ae/At                     1.00000   4.0000
 CSTAR, M/SEC               1140.0   1140.0
 CF                         0.6980   1.4374
 Ivac, M/SEC                1425.3   1808.2
 Isp, M/SEC                  795.7   1638.7

 MASS FRACTIONS

 *CO             0.00006   *CO2            0.16436   HO2             0.00001
 H2O             0.05689   *NO             0.00619   NO2             0.00008
 *N2             0.60093   *O              0.00003   *OH             0.00052
 *O2             0.17093

  * THERMODYNAMIC PROPERTIES FITTED TO 20000.K

 NOTE. WEIGHT FRACTION OF FUEL IN TOTAL FUELS AND OF OXIDANT IN TOTAL OXIDANTS

           THEORETICAL ROCKET PERFORMANCE ASSUMING FROZEN COMPOSITION

 Pin =   499.7 PSIA
 CASE = _______________

             REACTANT                    WT FRACTION      ENERGY      TEMP
                                          (SEE NOTE)     KJ/KG-MOL      K  
 FUEL        paraffin                     1.0000000  -1860600.000    298.150
 OXIDANT     N2O                          1.0000000         0.000      0.000

 O/F=   18.50000  %FUEL=  5.128205  R,EQ.RATIO= 0.493974  PHI,EQ.RATIO= 0.493974

                 CHAMBER   THROAT     EXIT
 Pinf/P            1.0000   1.8109   26.898
 P, BAR            34.450   19.024   1.2808
 T, K             2008.30  1775.78   984.81
 RHO, KG/CU M    6.0808 0 3.7976 0 4.6102-1
 H, KJ/KG         -95.247  -411.84 -1437.92
 U, KJ/KG         -661.79  -912.79 -1715.74
 G, KJ/KG        -16589.7 -14996.6 -9526.29
 S, KJ/(KG)(K)     8.2132   8.2132   8.2132

 M, (1/n)          29.473   29.473   29.473
 Cp, KJ/(KG)(K)    1.3718   1.3507   1.2255
 GAMMAs            1.2589   1.2640   1.2990
 SON VEL,M/SEC      844.5    795.7    600.7
 MACH NUMBER        0.000    1.000    2.728

 PERFORMANCE PARAMETERS

 Ae/At                      1.0000   4.0000
 CSTAR, M/SEC               1140.0   1140.0
 CF                         0.6980   1.4374
 Ivac, M/SEC                1425.3   1808.2
 Isp, M/SEC                  795.7   1638.7

 MASS FRACTIONS

 *CO             0.00006   *CO2            0.16436   HO2             0.00001
 H2O             0.05689   *NO             0.00619   NO2             0.00008
 *N2             0.60093   *O              0.00003   *OH             0.00052
 *O2             0.17093

  * THERMODYNAMIC PROPERTIES FITTED TO 20000.K

 NOTE. WEIGHT FRACTION OF FUEL IN TOTAL FUELS AND OF OXIDANT IN TOTAL OXIDANTS

           THEORETICAL ROCKET PERFORMANCE ASSUMING FROZEN COMPOSITION

 Pin =   514.4 PSIA
 CASE = _______________

             REACTANT                    WT FRACTION      ENERGY      TEMP
                                          (SEE NOTE)     KJ/KG-MOL      K  
 FUEL        paraffin                     1.0000000  -1860600.000    298.150
 OXIDANT     N2O                          1.0000000         0.000      0.000

 O/F=   18.50000  %FUEL=  5.128205  R,EQ.RATIO= 0.493974  PHI,EQ.RATIO= 0.493974

                 CHAMBER   THROAT     EXIT
 Pinf/P            1.0000   1.8109   26.898
 P, BAR            35.464   19.584   1.3185
 T, K             2008.33  1775.81   984.83
 RHO, KG/CU M    6.2596 0 3.9093 0 4.7457-1
 H, KJ/KG         -95.247  -411.85 -1437.94
 U, KJ/KG         -661.80  -912.81 -1715.76
 G, KJ/KG        -16573.6 -14982.3 -9518.44
 S, KJ/(KG)(K)     8.2050   8.2050   8.2050

 M, (1/n)          29.473   29.473   29.473
 Cp, KJ/(KG)(K)    1.3718   1.3507   1.2255
 GAMMAs            1.2589   1.2640   1.2990
 SON VEL,M/SEC      844.5    795.7    600.7
 MACH NUMBER        0.000    1.000    2.728

 PERFORMANCE PARAMETERS

 Ae/At                      1.0000   4.0000
 CSTAR, M/SEC               1140.0   1140.0
 CF                         0.6980   1.4374
 Ivac, M/SEC                1425.3   1808.3
 Isp, M/SEC                  795.7   1638.7

 MASS FRACTIONS

 *CO             0.00006   *CO2            0.16436   HO2             0.00001
 H2O             0.05690   *NO             0.00619   NO2             0.00008
 *N2             0.60093   *O              0.00003   *OH             0.00051
 *O2             0.17093

  * THERMODYNAMIC PROPERTIES FITTED TO 20000.K

 NOTE. WEIGHT FRACTION OF FUEL IN TOTAL FUELS AND OF OXIDANT IN TOTAL OXIDANTS

           THEORETICAL ROCKET PERFORMANCE ASSUMING FROZEN COMPOSITION

 Pin =   529.1 PSIA
 CASE = _______________

             REACTANT                    WT FRACTION      ENERGY      TEMP
                                          (SEE NOTE)     KJ/KG-MOL      K  
 FUEL        paraffin                     1.0000000  -1860600.000    298.150
 OXIDANT     N2O                          1.0000000         0.000      0.000

 O/F=   18.50000  %FUEL=  5.128205  R,EQ.RATIO= 0.493974  PHI,EQ.RATIO= 0.493974

                 CHAMBER   THROAT     EXIT
 Pinf/P            1.0000   1.8109   26.898
 P, BAR            36.477   20.143   1.3561
 T, K             2008.36  1775.84   984.85
 RHO, KG/CU M    6.4383 0 4.0209 0 4.8812-1
 H, KJ/KG         -95.247  -411.85 -1437.96
 U, KJ/KG         -661.81  -912.82 -1715.79
 G, KJ/KG        -16557.9 -14968.5 -9510.81
 S, KJ/(KG)(K)     8.1970   8.1970   8.1970

 M, (1/n)          29.474   29.474   29.474
 Cp, KJ/(KG)(K)    1.3718   1.3507   1.2255
 GAMMAs            1.2589   1.2640   1.2990
 SON VEL,M/SEC      844.5    795.8    600.8
 MACH NUMBER        0.000    1.000    2.728

 PERFORMANCE PARAMETERS

 Ae/At                      1.0000   4.0000
 CSTAR, M/SEC               1140.0   1140.0
 CF                         0.6980   1.4374
 Ivac, M/SEC                1425.3   1808.3
 Isp, M/SEC                  795.7   1638.7

 MASS FRACTIONS

 *CO             0.00006   *CO2            0.16437   HO2             0.00001
 H2O             0.05690   *NO             0.00619   NO2             0.00009
 *N2             0.60093   *O              0.00003   *OH             0.00051
 *O2             0.17093

  * THERMODYNAMIC PROPERTIES FITTED TO 20000.K

 NOTE. WEIGHT FRACTION OF FUEL IN TOTAL FUELS AND OF OXIDANT IN TOTAL OXIDANTS

           THEORETICAL ROCKET PERFORMANCE ASSUMING FROZEN COMPOSITION

 Pin =   543.8 PSIA
 CASE = _______________

             REACTANT                    WT FRACTION      ENERGY      TEMP
                                          (SEE NOTE)     KJ/KG-MOL      K  
 FUEL        paraffin                     1.0000000  -1860600.000    298.150
 OXIDANT     N2O                          1.0000000         0.000      0.000

 O/F=   18.50000  %FUEL=  5.128205  R,EQ.RATIO= 0.493974  PHI,EQ.RATIO= 0.493974

                 CHAMBER   THROAT     EXIT
 Pinf/P            1.0000   1.8109   26.898
 P, BAR            37.490   20.703   1.3938
 T, K             2008.40  1775.87   984.87
 RHO, KG/CU M    6.6171 0 4.1325 0 5.0168-1
 H, KJ/KG         -95.247  -411.86 -1437.98
 U, KJ/KG         -661.82  -912.83 -1715.81
 G, KJ/KG        -16542.6 -14955.0 -9503.38
 S, KJ/(KG)(K)     8.1893   8.1893   8.1893

 M, (1/n)          29.474   29.474   29.474
 Cp, KJ/(KG)(K)    1.3718   1.3507   1.2255
 GAMMAs            1.2589   1.2640   1.2990
 SON VEL,M/SEC      844.5    795.8    600.8
 MACH NUMBER        0.000    1.000    2.728

 PERFORMANCE PARAMETERS

 Ae/At                      1.0000   4.0000
 CSTAR, M/SEC               1140.1   1140.1
 CF                         0.6980   1.4374
 Ivac, M/SEC                1425.3   1808.3
 Isp, M/SEC                  795.7   1638.7

 MASS FRACTIONS

 *CO             0.00006   *CO2            0.16437   HO2             0.00001
 H2O             0.05690   *NO             0.00619   NO2             0.00009
 *N2             0.60092   *O              0.00003   *OH             0.00051
 *O2             0.17093

  * THERMODYNAMIC PROPERTIES FITTED TO 20000.K

 NOTE. WEIGHT FRACTION OF FUEL IN TOTAL FUELS AND OF OXIDANT IN TOTAL OXIDANTS

           THEORETICAL ROCKET PERFORMANCE ASSUMING FROZEN COMPOSITION

 Pin =   558.4 PSIA
 CASE = _______________

             REACTANT                    WT FRACTION      ENERGY      TEMP
                                          (SEE NOTE)     KJ/KG-MOL      K  
 FUEL        paraffin                     1.0000000  -1860600.000    298.150
 OXIDANT     N2O                          1.0000000         0.000      0.000

 O/F=   18.50000  %FUEL=  5.128205  R,EQ.RATIO= 0.493974  PHI,EQ.RATIO= 0.493974

                 CHAMBER   THROAT     EXIT
 Pinf/P            1.0000   1.8109   26.897
 P, BAR            38.504   21.262   1.4315
 T, K             2008.43  1775.90   984.89
 RHO, KG/CU M    6.7958 0 4.2442 0 5.1523-1
 H, KJ/KG         -95.247  -411.86 -1438.00
 U, KJ/KG         -661.82  -912.84 -1715.84
 G, KJ/KG        -16527.8 -14941.9 -9496.16
 S, KJ/(KG)(K)     8.1818   8.1818   8.1818

 M, (1/n)          29.474   29.474   29.474
 Cp, KJ/(KG)(K)    1.3718   1.3507   1.2255
 GAMMAs            1.2589   1.2640   1.2990
 SON VEL,M/SEC      844.5    795.8    600.8
 MACH NUMBER        0.000    1.000    2.728

 PERFORMANCE PARAMETERS

 Ae/At                      1.0000   4.0000
 CSTAR, M/SEC               1140.1   1140.1
 CF                         0.6980   1.4374
 Ivac, M/SEC                1425.3   1808.3
 Isp, M/SEC                  795.8   1638.8

 MASS FRACTIONS

 *CO             0.00006   *CO2            0.16437   HO2             0.00001
 H2O             0.05690   *NO             0.00619   NO2             0.00009
 *N2             0.60092   *O              0.00002   *OH             0.00050
 *O2             0.17093

  * THERMODYNAMIC PROPERTIES FITTED TO 20000.K

 NOTE. WEIGHT FRACTION OF FUEL IN TOTAL FUELS AND OF OXIDANT IN TOTAL OXIDANTS

           THEORETICAL ROCKET PERFORMANCE ASSUMING FROZEN COMPOSITION

 Pin =   573.1 PSIA
 CASE = _______________

             REACTANT                    WT FRACTION      ENERGY      TEMP
                                          (SEE NOTE)     KJ/KG-MOL      K  
 FUEL        paraffin                     1.0000000  -1860600.000    298.150
 OXIDANT     N2O                          1.0000000         0.000      0.000

 O/F=   18.50000  %FUEL=  5.128205  R,EQ.RATIO= 0.493974  PHI,EQ.RATIO= 0.493974

                 CHAMBER   THROAT     EXIT
 Pinf/P            1.0000   1.8109   26.897
 P, BAR            39.517   21.822   1.4692
 T, K             2008.46  1775.93   984.91
 RHO, KG/CU M    6.9746 0 4.3558 0 5.2878-1
 H, KJ/KG         -95.247  -411.86 -1438.02
 U, KJ/KG         -661.83  -912.85 -1715.86
 G, KJ/KG        -16513.3 -14929.1 -9489.12
 S, KJ/(KG)(K)     8.1745   8.1745   8.1745

 M, (1/n)          29.474   29.474   29.474
 Cp, KJ/(KG)(K)    1.3718   1.3507   1.2255
 GAMMAs            1.2589   1.2640   1.2990
 SON VEL,M/SEC      844.5    795.8    600.8
 MACH NUMBER        0.000    1.000    2.728

 PERFORMANCE PARAMETERS

 Ae/At                      1.0000   4.0000
 CSTAR, M/SEC               1140.1   1140.1
 CF                         0.6980   1.4374
 Ivac, M/SEC                1425.3   1808.3
 Isp, M/SEC                  795.8   1638.8

 MASS FRACTIONS

 *CO             0.00006   *CO2            0.16437   HO2             0.00001
 H2O             0.05690   *NO             0.00619   NO2             0.00009
 *N2             0.60092   *O              0.00002   *OH             0.00050
 *O2             0.17093

  * THERMODYNAMIC PROPERTIES FITTED TO 20000.K

 NOTE. WEIGHT FRACTION OF FUEL IN TOTAL FUELS AND OF OXIDANT IN TOTAL OXIDANTS

           THEORETICAL ROCKET PERFORMANCE ASSUMING FROZEN COMPOSITION

 Pin =   587.8 PSIA
 CASE = _______________

             REACTANT                    WT FRACTION      ENERGY      TEMP
                                          (SEE NOTE)     KJ/KG-MOL      K  
 FUEL        paraffin                     1.0000000  -1860600.000    298.150
 OXIDANT     N2O                          1.0000000         0.000      0.000

 O/F=   18.50000  %FUEL=  5.128205  R,EQ.RATIO= 0.493974  PHI,EQ.RATIO= 0.493974

                 CHAMBER   THROAT     EXIT
 Pinf/P            1.0000   1.8109   26.897
 P, BAR            40.530   22.382   1.5068
 T, K             2008.49  1775.95   984.93
 RHO, KG/CU M    7.1533 0 4.4674 0 5.4233-1
 H, KJ/KG         -95.247  -411.87 -1438.03
 U, KJ/KG         -661.84  -912.86 -1715.88
 G, KJ/KG        -16499.2 -14916.6 -9482.25
 S, KJ/(KG)(K)     8.1673   8.1673   8.1673

 M, (1/n)          29.474   29.474   29.474
 Cp, KJ/(KG)(K)    1.3718   1.3507   1.2255
 GAMMAs            1.2589   1.2640   1.2990
 SON VEL,M/SEC      844.6    795.8    600.8
 MACH NUMBER        0.000    1.000    2.728

 PERFORMANCE PARAMETERS

 Ae/At                      1.0000   4.0000
 CSTAR, M/SEC               1140.1   1140.1
 CF                         0.6980   1.4374
 Ivac, M/SEC                1425.3   1808.3
 Isp, M/SEC                  795.8   1638.8

 MASS FRACTIONS

 *CO             0.00006   *CO2            0.16437   HO2             0.00001
 H2O             0.05691   *NO             0.00619   NO2             0.00009
 *N2             0.60092   *O              0.00002   *OH             0.00050
 *O2             0.17093

  * THERMODYNAMIC PROPERTIES FITTED TO 20000.K

 NOTE. WEIGHT FRACTION OF FUEL IN TOTAL FUELS AND OF OXIDANT IN TOTAL OXIDANTS

           THEORETICAL ROCKET PERFORMANCE ASSUMING FROZEN COMPOSITION

 Pin =   602.5 PSIA
 CASE = _______________

             REACTANT                    WT FRACTION      ENERGY      TEMP
                                          (SEE NOTE)     KJ/KG-MOL      K  
 FUEL        paraffin                     1.0000000  -1860600.000    298.150
 OXIDANT     N2O                          1.0000000         0.000      0.000

 O/F=   18.50000  %FUEL=  5.128205  R,EQ.RATIO= 0.493974  PHI,EQ.RATIO= 0.493974

                 CHAMBER   THROAT     EXIT
 Pinf/P            1.0000   1.8109   26.897
 P, BAR            41.543   22.941   1.5445
 T, K             2008.51  1775.98   984.95
 RHO, KG/CU M    7.3321 0 4.5791 0 5.5588-1
 H, KJ/KG         -95.247  -411.87 -1438.05
 U, KJ/KG         -661.84  -912.87 -1715.90
 G, KJ/KG        -16485.4 -14904.5 -9475.55
 S, KJ/(KG)(K)     8.1603   8.1603   8.1603

 M, (1/n)          29.474   29.474   29.474
 Cp, KJ/(KG)(K)    1.3718   1.3507   1.2255
 GAMMAs            1.2589   1.2640   1.2990
 SON VEL,M/SEC      844.6    795.8    600.8
 MACH NUMBER        0.000    1.000    2.728

 PERFORMANCE PARAMETERS

 Ae/At                      1.0000   4.0000
 CSTAR, M/SEC               1140.1   1140.1
 CF                         0.6980   1.4374
 Ivac, M/SEC                1425.3   1808.3
 Isp, M/SEC                  795.8   1638.8

 MASS FRACTIONS

 *CO             0.00006   *CO2            0.16437   HO2             0.00001
 H2O             0.05691   *NO             0.00619   NO2             0.00009
 *N2             0.60092   *O              0.00002   *OH             0.00049
 *O2             0.17093

  * THERMODYNAMIC PROPERTIES FITTED TO 20000.K

 NOTE. WEIGHT FRACTION OF FUEL IN TOTAL FUELS AND OF OXIDANT IN TOTAL OXIDANTS

           THEORETICAL ROCKET PERFORMANCE ASSUMING FROZEN COMPOSITION

 Pin =   617.2 PSIA
 CASE = _______________

             REACTANT                    WT FRACTION      ENERGY      TEMP
                                          (SEE NOTE)     KJ/KG-MOL      K  
 FUEL        paraffin                     1.0000000  -1860600.000    298.150
 OXIDANT     N2O                          1.0000000         0.000      0.000

 O/F=   18.50000  %FUEL=  5.128205  R,EQ.RATIO= 0.493974  PHI,EQ.RATIO= 0.493974

                 CHAMBER   THROAT     EXIT
 Pinf/P            1.0000   1.8109   26.897
 P, BAR            42.556   23.501   1.5822
 T, K             2008.54  1776.00   984.96
 RHO, KG/CU M    7.5108 0 4.6907 0 5.6943-1
 H, KJ/KG         -95.247  -411.87 -1438.07
 U, KJ/KG         -661.85  -912.88 -1715.92
 G, KJ/KG        -16472.0 -14892.6 -9469.02
 S, KJ/(KG)(K)     8.1535   8.1535   8.1535

 M, (1/n)          29.474   29.474   29.474
 Cp, KJ/(KG)(K)    1.3718   1.3507   1.2255
 GAMMAs            1.2589   1.2640   1.2990
 SON VEL,M/SEC      844.6    795.8    600.8
 MACH NUMBER        0.000    1.000    2.728

 PERFORMANCE PARAMETERS

 Ae/At                     1.00000   4.0000
 CSTAR, M/SEC               1140.1   1140.1
 CF                         0.6980   1.4374
 Ivac, M/SEC                1425.4   1808.3
 Isp, M/SEC                  795.8   1638.8

 MASS FRACTIONS

 *CO             0.00006   *CO2            0.16437   HO2             0.00001
 H2O             0.05691   *NO             0.00619   NO2             0.00009
 *N2             0.60092   *O              0.00002   *OH             0.00049
 *O2             0.17093

  * THERMODYNAMIC PROPERTIES FITTED TO 20000.K

 NOTE. WEIGHT FRACTION OF FUEL IN TOTAL FUELS AND OF OXIDANT IN TOTAL OXIDANTS

           THEORETICAL ROCKET PERFORMANCE ASSUMING FROZEN COMPOSITION

 Pin =   631.9 PSIA
 CASE = _______________

             REACTANT                    WT FRACTION      ENERGY      TEMP
                                          (SEE NOTE)     KJ/KG-MOL      K  
 FUEL        paraffin                     1.0000000  -1860600.000    298.150
 OXIDANT     N2O                          1.0000000         0.000      0.000

 O/F=   18.50000  %FUEL=  5.128205  R,EQ.RATIO= 0.493974  PHI,EQ.RATIO= 0.493974

                 CHAMBER   THROAT     EXIT
 Pinf/P            1.0000   1.8109   26.897
 P, BAR            43.570   24.060   1.6199
 T, K             2008.57  1776.03   984.98
 RHO, KG/CU M    7.6896 0 4.8023 0 5.8298-1
 H, KJ/KG         -95.247  -411.88 -1438.08
 U, KJ/KG         -661.86  -912.89 -1715.94
 G, KJ/KG        -16458.9 -14881.0 -9462.63
 S, KJ/(KG)(K)     8.1469   8.1469   8.1469

 M, (1/n)          29.474   29.474   29.474
 Cp, KJ/(KG)(K)    1.3718   1.3507   1.2255
 GAMMAs            1.2589   1.2640   1.2990
 SON VEL,M/SEC      844.6    795.8    600.8
 MACH NUMBER        0.000    1.000    2.728

 PERFORMANCE PARAMETERS

 Ae/At                      1.0000   4.0000
 CSTAR, M/SEC               1140.1   1140.1
 CF                         0.6980   1.4374
 Ivac, M/SEC                1425.4   1808.4
 Isp, M/SEC                  795.8   1638.8

 MASS FRACTIONS

 *CO             0.00006   *CO2            0.16437   HO2             0.00001
 H2O             0.05691   *NO             0.00619   NO2             0.00009
 *N2             0.60092   *O              0.00002   *OH             0.00049
 *O2             0.17093

  * THERMODYNAMIC PROPERTIES FITTED TO 20000.K

 NOTE. WEIGHT FRACTION OF FUEL IN TOTAL FUELS AND OF OXIDANT IN TOTAL OXIDANTS

           THEORETICAL ROCKET PERFORMANCE ASSUMING FROZEN COMPOSITION

 Pin =   646.6 PSIA
 CASE = _______________

             REACTANT                    WT FRACTION      ENERGY      TEMP
                                          (SEE NOTE)     KJ/KG-MOL      K  
 FUEL        paraffin                     1.0000000  -1860600.000    298.150
 OXIDANT     N2O                          1.0000000         0.000      0.000

 O/F=   18.50000  %FUEL=  5.128205  R,EQ.RATIO= 0.493974  PHI,EQ.RATIO= 0.493974

                 CHAMBER   THROAT     EXIT
 Pinf/P            1.0000   1.8109   26.897
 P, BAR            44.583   24.620   1.6576
 T, K             2008.59  1776.05   985.00
 RHO, KG/CU M    7.8683 0 4.9140 0 5.9654-1
 H, KJ/KG         -95.247  -411.88 -1438.10
 U, KJ/KG         -661.86  -912.90 -1715.96
 G, KJ/KG        -16446.0 -14869.7 -9456.39
 S, KJ/(KG)(K)     8.1404   8.1404   8.1404

 M, (1/n)          29.474   29.474   29.474
 Cp, KJ/(KG)(K)    1.3718   1.3507   1.2255
 GAMMAs            1.2589   1.2640   1.2990
 SON VEL,M/SEC      844.6    795.8    600.8
 MACH NUMBER        0.000    1.000    2.728

 PERFORMANCE PARAMETERS

 Ae/At                      1.0000   4.0000
 CSTAR, M/SEC               1140.1   1140.1
 CF                         0.6980   1.4374
 Ivac, M/SEC                1425.4   1808.4
 Isp, M/SEC                  795.8   1638.8

 MASS FRACTIONS

 *CO             0.00006   *CO2            0.16438   HO2             0.00001
 H2O             0.05691   *NO             0.00619   NO2             0.00009
 *N2             0.60092   *O              0.00002   *OH             0.00048
 *O2             0.17093

  * THERMODYNAMIC PROPERTIES FITTED TO 20000.K

 NOTE. WEIGHT FRACTION OF FUEL IN TOTAL FUELS AND OF OXIDANT IN TOTAL OXIDANTS

           THEORETICAL ROCKET PERFORMANCE ASSUMING FROZEN COMPOSITION

 Pin =   661.3 PSIA
 CASE = _______________

             REACTANT                    WT FRACTION      ENERGY      TEMP
                                          (SEE NOTE)     KJ/KG-MOL      K  
 FUEL        paraffin                     1.0000000  -1860600.000    298.150
 OXIDANT     N2O                          1.0000000         0.000      0.000

 O/F=   18.50000  %FUEL=  5.128205  R,EQ.RATIO= 0.493974  PHI,EQ.RATIO= 0.493974

                 CHAMBER   THROAT     EXIT
 Pinf/P            1.0000   1.8109   26.897
 P, BAR            45.596   25.179   1.6952
 T, K             2008.62  1776.08   985.01
 RHO, KG/CU M    8.0471 0 5.0256 0 6.1009-1
 H, KJ/KG         -95.247  -411.88 -1438.11
 U, KJ/KG         -661.87  -912.90 -1715.98
[...]
 OXIDANT     N2O                          1.0000000         0.000      0.000

 O/F=    2.00000  %FUEL= 33.333333  R,EQ.RATIO= 4.569263  PHI,EQ.RATIO= 4.569263

                 CHAMBER   THROAT     EXIT
 Pinf/P            1.0000   1.8088   27.095
 P, BAR            38.504   21.286   1.4211
 T, K             1255.05  1112.19   612.74
 RHO, KG/CU M    8.0184 0 5.0022 0 6.0616-1
 H, KJ/KG         -619.11  -887.26 -1760.44
 U, KJ/KG        -1099.30 -1312.79 -1994.88
 G, KJ/KG        -12626.0 -11527.4 -7622.42
 S, KJ/(KG)(K)     9.5668   9.5668   9.5668

 M, (1/n)          21.731   21.731   21.731
 MW, MOL WT        17.807   17.807   17.807
 Cp, KJ/(KG)(K)    1.9006   1.8525   1.6283
 GAMMAs            1.2521   1.2603   1.3072
 SON VEL,M/SEC      775.4    732.3    553.6
 MACH NUMBER        0.000    1.000    2.729

 PERFORMANCE PARAMETERS

 Ae/At                      1.0000   4.0000
 CSTAR, M/SEC               1051.1   1051.1
 CF                         0.6967   1.4374
 Ivac, M/SEC                1313.4   1666.0
 Isp, M/SEC                  732.3   1510.9

 MASS FRACTIONS

 CH4             0.03112   *CO             0.31516   *CO2            0.04207
 C2H4            0.00001   C2H6            0.00001   HCN             0.00006
 *H2             0.02968   H2O             0.03573   NH3             0.00047
 *N2             0.42390   C(gr)           0.12178

  * THERMODYNAMIC PROPERTIES FITTED TO 20000.K

 NOTE. WEIGHT FRACTION OF FUEL IN TOTAL FUELS AND OF OXIDANT IN TOTAL OXIDANTS

           THEORETICAL ROCKET PERFORMANCE ASSUMING FROZEN COMPOSITION

 Pin =   573.1 PSIA
 CASE = _______________

             REACTANT                    WT FRACTION      ENERGY      TEMP
                                          (SEE NOTE)     KJ/KG-MOL      K  
 FUEL        paraffin                     1.0000000  -1860600.000    298.150
 OXIDANT     N2O                          1.0000000         0.000      0.000

 O/F=    2.00000  %FUEL= 33.333333  R,EQ.RATIO= 4.569263  PHI,EQ.RATIO= 4.569263

                 CHAMBER   THROAT     EXIT
 Pinf/P            1.0000   1.8087   27.078
 P, BAR            39.517   21.849   1.4594
 T, K             1256.75  1113.85   614.04
 RHO, KG/CU M    8.2235 0 5.1301 0 6.2157-1
 H, KJ/KG         -619.11  -887.42 -1761.43
 U, KJ/KG        -1099.64 -1313.31 -1996.22
 G, KJ/KG        -12629.7 -11532.4 -7629.77
 S, KJ/(KG)(K)     9.5569   9.5569   9.5569

 M, (1/n)          21.745   21.745   21.745
 MW, MOL WT        17.819   17.819   17.819
 Cp, KJ/(KG)(K)    1.9011   1.8531   1.6285
 GAMMAs            1.2518   1.2600   1.3068
 SON VEL,M/SEC      775.6    732.5    553.9
 MACH NUMBER        0.000    1.000    2.729

 PERFORMANCE PARAMETERS

 Ae/At                      1.0000   4.0000
 CSTAR, M/SEC               1051.5   1051.5
 CF                         0.6966   1.4374
 Ivac, M/SEC                1313.9   1666.8
 Isp, M/SEC                  732.5   1511.5

 MASS FRACTIONS

 CH4             0.03139   *CO             0.31477   *CO2            0.04217
 C2H4            0.00001   C2H6            0.00001   HCN             0.00007
 *H2             0.02959   H2O             0.03590   NH3             0.00048
 *N2             0.42389   C(gr)           0.12171

  * THERMODYNAMIC PROPERTIES FITTED TO 20000.K

 NOTE. WEIGHT FRACTION OF FUEL IN TOTAL FUELS AND OF OXIDANT IN TOTAL OXIDANTS

           THEORETICAL ROCKET PERFORMANCE ASSUMING FROZEN COMPOSITION

 Pin =   587.8 PSIA
 CASE = _______________

             REACTANT                    WT FRACTION      ENERGY      TEMP
                                          (SEE NOTE)     KJ/KG-MOL      K  
 FUEL        paraffin                     1.0000000  -1860600.000    298.150
 OXIDANT     N2O                          1.0000000         0.000      0.000

 O/F=    2.00000  %FUEL= 33.333333  R,EQ.RATIO= 4.569263  PHI,EQ.RATIO= 4.569263

                 CHAMBER   THROAT     EXIT
 Pinf/P            1.0000   1.8085   27.062
 P, BAR            40.530   22.411   1.4977
 T, K             1258.41  1115.47   615.32
 RHO, KG/CU M    8.4285 0 5.2578 0 6.3696-1
 H, KJ/KG         -619.11  -887.58 -1762.40
 U, KJ/KG        -1099.98 -1313.83 -1997.53
 G, KJ/KG        -12633.5 -11537.2 -7636.97
 S, KJ/(KG)(K)     9.5472   9.5472   9.5472

 M, (1/n)          21.759   21.759   21.759
 MW, MOL WT        17.829   17.829   17.829
 Cp, KJ/(KG)(K)    1.9016   1.8536   1.6288
 GAMMAs            1.2515   1.2597   1.3065
 SON VEL,M/SEC      775.8    732.8    554.3
 MACH NUMBER        0.000    1.000    2.728

 PERFORMANCE PARAMETERS

 Ae/At                      1.0000   4.0000
 CSTAR, M/SEC               1052.0   1052.0
 CF                         0.6965   1.4374
 Ivac, M/SEC                1314.5   1667.6
 Isp, M/SEC                  732.8   1512.1

 MASS FRACTIONS

 CH4             0.03166   *CO             0.31439   *CO2            0.04226
 C2H4            0.00001   C2H6            0.00001   HCN             0.00007
 *H2             0.02950   H2O             0.03607   NH3             0.00048
 *N2             0.42389   C(gr)           0.12165

  * THERMODYNAMIC PROPERTIES FITTED TO 20000.K

 NOTE. WEIGHT FRACTION OF FUEL IN TOTAL FUELS AND OF OXIDANT IN TOTAL OXIDANTS

           THEORETICAL ROCKET PERFORMANCE ASSUMING FROZEN COMPOSITION

 Pin =   602.5 PSIA
 CASE = _______________

             REACTANT                    WT FRACTION      ENERGY      TEMP
                                          (SEE NOTE)     KJ/KG-MOL      K  
 FUEL        paraffin                     1.0000000  -1860600.000    298.150
 OXIDANT     N2O                          1.0000000         0.000      0.000

 O/F=    2.00000  %FUEL= 33.333333  R,EQ.RATIO= 4.569263  PHI,EQ.RATIO= 4.569263

                 CHAMBER   THROAT     EXIT
 Pinf/P            1.0000   1.8083   27.046
 P, BAR            41.543   22.974   1.5360
 T, K             1260.04  1117.05   616.57
 RHO, KG/CU M    8.6333 0 5.3854 0 6.5234-1
 H, KJ/KG         -619.11  -887.73 -1763.34
 U, KJ/KG        -1100.30 -1314.32 -1998.80
 G, KJ/KG        -12637.1 -11541.9 -7644.01
 S, KJ/(KG)(K)     9.5378   9.5378   9.5378

 M, (1/n)          21.772   21.772   21.772
 MW, MOL WT        17.840   17.840   17.840
 Cp, KJ/(KG)(K)    1.9021   1.8541   1.6291
 GAMMAs            1.2512   1.2594   1.3062
 SON VEL,M/SEC      775.9    733.0    554.6
 MACH NUMBER        0.000    1.000    2.728

 PERFORMANCE PARAMETERS

 Ae/At                     1.00000   4.0000
 CSTAR, M/SEC               1052.4   1052.4
 CF                         0.6965   1.4374
 Ivac, M/SEC                1315.0   1668.4
 Isp, M/SEC                  733.0   1512.8

 MASS FRACTIONS

 CH4             0.03193   *CO             0.31402   *CO2            0.04236
 C2H4            0.00001   C2H6            0.00001   HCN             0.00007
 *H2             0.02942   H2O             0.03623   NH3             0.00049
 *N2             0.42388   C(gr)           0.12158

  * THERMODYNAMIC PROPERTIES FITTED TO 20000.K

 NOTE. WEIGHT FRACTION OF FUEL IN TOTAL FUELS AND OF OXIDANT IN TOTAL OXIDANTS

           THEORETICAL ROCKET PERFORMANCE ASSUMING FROZEN COMPOSITION

 Pin =   617.2 PSIA
 CASE = _______________

             REACTANT                    WT FRACTION      ENERGY      TEMP
                                          (SEE NOTE)     KJ/KG-MOL      K  
 FUEL        paraffin                     1.0000000  -1860600.000    298.150
 OXIDANT     N2O                          1.0000000         0.000      0.000

 O/F=    2.00000  %FUEL= 33.333333  R,EQ.RATIO= 4.569263  PHI,EQ.RATIO= 4.569263

                 CHAMBER   THROAT     EXIT
 Pinf/P            1.0000   1.8081   27.031
 P, BAR            42.556   23.536   1.5744
 T, K             1261.63  1118.60   617.79
 RHO, KG/CU M    8.8380 0 5.5129 0 6.6771-1
 H, KJ/KG         -619.11  -887.88 -1764.26
 U, KJ/KG        -1100.62 -1314.81 -2000.05
 G, KJ/KG        -12640.6 -11546.5 -7650.91
 S, KJ/(KG)(K)     9.5286   9.5286   9.5286

 M, (1/n)          21.785   21.785   21.785
 MW, MOL WT        17.851   17.851   17.851
 Cp, KJ/(KG)(K)    1.9027   1.8546   1.6293
 GAMMAs            1.2509   1.2591   1.3059
 SON VEL,M/SEC      776.1    733.2    554.9
 MACH NUMBER        0.000    1.000    2.727

 PERFORMANCE PARAMETERS

 Ae/At                      1.0000   4.0000
 CSTAR, M/SEC               1052.9   1052.9
 CF                         0.6964   1.4374
 Ivac, M/SEC                1315.5   1669.2
 Isp, M/SEC                  733.2   1513.4

 MASS FRACTIONS

 CH4             0.03219   *CO             0.31365   *CO2            0.04245
 C2H4            0.00001   C2H6            0.00001   HCN             0.00007
 *H2             0.02933   H2O             0.03639   NH3             0.00050
 *N2             0.42387   C(gr)           0.12152

  * THERMODYNAMIC PROPERTIES FITTED TO 20000.K

 NOTE. WEIGHT FRACTION OF FUEL IN TOTAL FUELS AND OF OXIDANT IN TOTAL OXIDANTS

           THEORETICAL ROCKET PERFORMANCE ASSUMING FROZEN COMPOSITION

 Pin =   631.9 PSIA
 CASE = _______________

             REACTANT                    WT FRACTION      ENERGY      TEMP
                                          (SEE NOTE)     KJ/KG-MOL      K  
 FUEL        paraffin                     1.0000000  -1860600.000    298.150
 OXIDANT     N2O                          1.0000000         0.000      0.000

 O/F=    2.00000  %FUEL= 33.333333  R,EQ.RATIO= 4.569263  PHI,EQ.RATIO= 4.569263

                 CHAMBER   THROAT     EXIT
 Pinf/P            1.0000   1.8080   27.016
 P, BAR            43.570   24.099   1.6128
 T, K             1263.18  1120.11   618.99
 RHO, KG/CU M    9.0426 0 5.6404 0 6.8307-1
 H, KJ/KG         -619.11  -888.03 -1765.16
 U, KJ/KG        -1100.93 -1315.28 -2001.27
 G, KJ/KG        -12644.1 -11551.1 -7657.68
 S, KJ/(KG)(K)     9.5196   9.5196   9.5196

 M, (1/n)          21.798   21.798   21.798
 MW, MOL WT        17.861   17.861   17.861
 Cp, KJ/(KG)(K)    1.9032   1.8551   1.6296
 GAMMAs            1.2507   1.2588   1.3056
 SON VEL,M/SEC      776.3    733.4    555.2
 MACH NUMBER        0.000    1.000    2.727

 PERFORMANCE PARAMETERS

 Ae/At                      1.0000   4.0000
 CSTAR, M/SEC               1053.3   1053.3
 CF                         0.6963   1.4374
 Ivac, M/SEC                1316.0   1669.9
 Isp, M/SEC                  733.4   1514.0

 MASS FRACTIONS

 CH4             0.03244   *CO             0.31330   *CO2            0.04254
 C2H4            0.00001   C2H6            0.00001   HCN             0.00007
 *H2             0.02925   H2O             0.03654   NH3             0.00050
 *N2             0.42387   C(gr)           0.12145

  * THERMODYNAMIC PROPERTIES FITTED TO 20000.K

 NOTE. WEIGHT FRACTION OF FUEL IN TOTAL FUELS AND OF OXIDANT IN TOTAL OXIDANTS

           THEORETICAL ROCKET PERFORMANCE ASSUMING FROZEN COMPOSITION

 Pin =   646.6 PSIA
 CASE = _______________

             REACTANT                    WT FRACTION      ENERGY      TEMP
                                          (SEE NOTE)     KJ/KG-MOL      K  
 FUEL        paraffin                     1.0000000  -1860600.000    298.150
 OXIDANT     N2O                          1.0000000         0.000      0.000

 O/F=    2.00000  %FUEL= 33.333333  R,EQ.RATIO= 4.569263  PHI,EQ.RATIO= 4.569263

                 CHAMBER   THROAT     EXIT
 Pinf/P            1.0000   1.8078   27.001
 P, BAR            44.583   24.662   1.6512
 T, K             1264.71  1121.60   620.16
 RHO, KG/CU M    9.2471 0 5.7678 0 6.9841-1
 H, KJ/KG         -619.11  -888.17 -1766.04
 U, KJ/KG        -1101.24 -1315.75 -2002.46
 G, KJ/KG        -12647.5 -11555.5 -7664.31
 S, KJ/(KG)(K)     9.5108   9.5108   9.5108

 M, (1/n)          21.810   21.810   21.810
 MW, MOL WT        17.871   17.871   17.871
 Cp, KJ/(KG)(K)    1.9036   1.8556   1.6298
 GAMMAs            1.2504   1.2586   1.3053
 SON VEL,M/SEC      776.4    733.6    555.5
 MACH NUMBER        0.000    1.000    2.726

 PERFORMANCE PARAMETERS

 Ae/At                      1.0000   4.0000
 CSTAR, M/SEC               1053.7   1053.7
 CF                         0.6962   1.4374
 Ivac, M/SEC                1316.4   1670.6
 Isp, M/SEC                  733.6   1514.6

 MASS FRACTIONS

 CH4             0.03269   *CO             0.31295   *CO2            0.04263
 C2H4            0.00001   C2H6            0.00001   HCN             0.00007
 *H2             0.02917   H2O             0.03669   NH3             0.00051
 *N2             0.42386   C(gr)           0.12139

  * THERMODYNAMIC PROPERTIES FITTED TO 20000.K

 NOTE. WEIGHT FRACTION OF FUEL IN TOTAL FUELS AND OF OXIDANT IN TOTAL OXIDANTS

           THEORETICAL ROCKET PERFORMANCE ASSUMING FROZEN COMPOSITION

 Pin =   661.3 PSIA
 CASE = _______________

             REACTANT                    WT FRACTION      ENERGY      TEMP
                                          (SEE NOTE)     KJ/KG-MOL      K  
 FUEL        paraffin                     1.0000000  -1860600.000    298.150
 OXIDANT     N2O                          1.0000000         0.000      0.000

 O/F=    2.00000  %FUEL= 33.333333  R,EQ.RATIO= 4.569263  PHI,EQ.RATIO= 4.569263

                 CHAMBER   THROAT     EXIT
 Pinf/P            1.0000   1.8076   26.986
 P, BAR            45.596   25.224   1.6896
 T, K             1266.20  1123.05   621.32
 RHO, KG/CU M    9.4514 0 5.8951 0 7.1374-1
 H, KJ/KG         -619.11  -888.31 -1766.90
 U, KJ/KG        -1101.53 -1316.20 -2003.62
 G, KJ/KG        -12650.9 -11559.8 -7670.81
 S, KJ/(KG)(K)     9.5023   9.5023   9.5023

 M, (1/n)          21.823   21.823   21.823
 MW, MOL WT        17.881   17.881   17.881
 Cp, KJ/(KG)(K)    1.9041   1.8560   1.6301
 GAMMAs            1.2501   1.2583   1.3050
 SON VEL,M/SEC      776.6    733.8    555.8
 MACH NUMBER        0.000    1.000    2.726

 PERFORMANCE PARAMETERS

 Ae/At                      1.0000   4.0000
 CSTAR, M/SEC               1054.1   1054.1
 CF                         0.6961   1.4374
 Ivac, M/SEC                1316.9   1671.4
 Isp, M/SEC                  733.8   1515.1

 MASS FRACTIONS

 CH4             0.03294   *CO             0.31261   *CO2            0.04272
 C2H4            0.00001   C2H6            0.00001   HCN             0.00007
 *H2             0.02909   H2O             0.03684   NH3             0.00052
 *N2             0.42386   C(gr)           0.12133

  * THERMODYNAMIC PROPERTIES FITTED TO 20000.K

 NOTE. WEIGHT FRACTION OF FUEL IN TOTAL FUELS AND OF OXIDANT IN TOTAL OXIDANTS

           THEORETICAL ROCKET PERFORMANCE ASSUMING FROZEN COMPOSITION

 Pin =   676.0 PSIA
 CASE = _______________

             REACTANT                    WT FRACTION      ENERGY      TEMP
                                          (SEE NOTE)     KJ/KG-MOL      K  
 FUEL        paraffin                     1.0000000  -1860600.000    298.150
 OXIDANT     N2O                          1.0000000         0.000      0.000

 O/F=    2.00000  %FUEL= 33.333333  R,EQ.RATIO= 4.569263  PHI,EQ.RATIO= 4.569263

                 CHAMBER   THROAT     EXIT
 Pinf/P            1.0000   1.8075   26.972
 P, BAR            46.609   25.787   1.7281
 T, K             1267.66  1124.48   622.45
 RHO, KG/CU M    9.6556 0 6.0223 0 7.2907-1
 H, KJ/KG         -619.11  -888.45 -1767.74
 U, KJ/KG        -1101.82 -1316.64 -2004.76
 G, KJ/KG        -12654.2 -11564.1 -7677.19
 S, KJ/(KG)(K)     9.4939   9.4939   9.4939

 M, (1/n)          21.835   21.835   21.835
 MW, MOL WT        17.891   17.891   17.891
 Cp, KJ/(KG)(K)    1.9046   1.8565   1.6303
 GAMMAs            1.2499   1.2580   1.3048
 SON VEL,M/SEC      776.8    734.0    556.1
 MACH NUMBER        0.000    1.000    2.725

 PERFORMANCE PARAMETERS

 Ae/At                      1.0000   4.0000
 CSTAR, M/SEC               1054.5   1054.5
 CF                         0.6960   1.4373
 Ivac, M/SEC                1317.4   1672.1
 Isp, M/SEC                  734.0   1515.7

 MASS FRACTIONS

 CH4             0.03318   *CO             0.31227   *CO2            0.04280
 C2H4            0.00001   C2H6            0.00001   HCN             0.00007
 HNCO            0.00001   *H2             0.02901   H2O             0.03699
 NH3             0.00052   *N2             0.42385   C(gr)           0.12127

  * THERMODYNAMIC PROPERTIES FITTED TO 20000.K

 NOTE. WEIGHT FRACTION OF FUEL IN TOTAL FUELS AND OF OXIDANT IN TOTAL OXIDANTS

           THEORETICAL ROCKET PERFORMANCE ASSUMING FROZEN COMPOSITION

 Pin =   690.7 PSIA
 CASE = _______________

             REACTANT                    WT FRACTION      ENERGY      TEMP
                                          (SEE NOTE)     KJ/KG-MOL      K  
 FUEL        paraffin                     1.0000000  -1860600.000    298.150
 OXIDANT     N2O                          1.0000000         0.000      0.000

 O/F=    2.00000  %FUEL= 33.333333  R,EQ.RATIO= 4.569263  PHI,EQ.RATIO= 4.569263

                 CHAMBER   THROAT     EXIT
 Pinf/P            1.0000   1.8073   26.958
 P, BAR            47.623   26.350   1.7665
 T, K             1269.10  1125.87   623.56
 RHO, KG/CU M    9.8598 0 6.1495 0 7.4438-1
 H, KJ/KG         -619.11  -888.58 -1768.56
 U, KJ/KG        -1102.11 -1317.08 -2005.88
 G, KJ/KG        -12657.4 -11568.3 -7683.45
 S, KJ/(KG)(K)     9.4857   9.4857   9.4857

 M, (1/n)          21.847   21.847   21.847
 MW, MOL WT        17.900   17.900   17.900
 Cp, KJ/(KG)(K)    1.9051   1.8569   1.6305
 GAMMAs            1.2497   1.2578   1.3045
 SON VEL,M/SEC      776.9    734.1    556.4
 MACH NUMBER        0.000    1.000    2.725

 PERFORMANCE PARAMETERS

 Ae/At                      1.0000   4.0000
 CSTAR, M/SEC               1054.9   1054.9
 CF                         0.6959   1.4373
 Ivac, M/SEC                1317.8   1672.7
 Isp, M/SEC                  734.1   1516.2

 MASS FRACTIONS

 CH4             0.03341   *CO             0.31195   *CO2            0.04289
 C2H4            0.00001   C2H6            0.00001   HCN             0.00007
 HNCO            0.00001   *H2             0.02894   H2O             0.03713
 NH3             0.00053   *N2             0.42385   C(gr)           0.12121

  * THERMODYNAMIC PROPERTIES FITTED TO 20000.K

 NOTE. WEIGHT FRACTION OF FUEL IN TOTAL FUELS AND OF OXIDANT IN TOTAL OXIDANTS

           THEORETICAL ROCKET PERFORMANCE ASSUMING FROZEN COMPOSITION

 Pin =   705.4 PSIA
 CASE = _______________

             REACTANT                    WT FRACTION      ENERGY      TEMP
                                          (SEE NOTE)     KJ/KG-MOL      K  
 FUEL        paraffin                     1.0000000  -1860600.000    298.150
 OXIDANT     N2O                          1.0000000         0.000      0.000

 O/F=    2.00000  %FUEL= 33.333333  R,EQ.RATIO= 4.569263  PHI,EQ.RATIO= 4.569263

                 CHAMBER   THROAT     EXIT
 Pinf/P            1.0000   1.8072   26.945
 P, BAR            48.636   26.913   1.8050
 T, K             1270.50  1127.25   624.65
 RHO, KG/CU M    1.0064 1 6.2765 0 7.5968-1
 H, KJ/KG         -619.11  -888.71 -1769.36
 U, KJ/KG        -1102.39 -1317.50 -2006.97
 G, KJ/KG        -12660.6 -11572.4 -7689.60
 S, KJ/(KG)(K)     9.4777   9.4777   9.4777

 M, (1/n)          21.858   21.858   21.858
 MW, MOL WT        17.910   17.910   17.910
 Cp, KJ/(KG)(K)    1.9055   1.8574   1.6308
 GAMMAs            1.2494   1.2575   1.3042
 SON VEL,M/SEC      777.1    734.3    556.7
 MACH NUMBER        0.000    1.000    2.725

 PERFORMANCE PARAMETERS

 Ae/At                      1.0000   4.0000
 CSTAR, M/SEC               1055.3   1055.3
 CF                         0.6959   1.4373
 Ivac, M/SEC                1318.2   1673.4
 Isp, M/SEC                  734.3   1516.7

 MASS FRACTIONS

 CH4             0.03364   *CO             0.31163   *CO2            0.04297
 C2H4            0.00001   C2H6            0.00001   HCN             0.00007
 HNCO            0.00001   *H2             0.02886   H2O             0.03727
 NH3             0.00054   *N2             0.42384   C(gr)           0.12115

  * THERMODYNAMIC PROPERTIES FITTED TO 20000.K

 NOTE. WEIGHT FRACTION OF FUEL IN TOTAL FUELS AND OF OXIDANT IN TOTAL OXIDANTS