         NASA-GLENN CHEMICAL EQUILIBRIUM PROGRAM CEA2, FEBRUARY 5, 2004
                   BY  BONNIE MCBRIDE AND SANFORD GORDON
      REFS: NASA RP-1311, PART I, 1994 AND NASA RP-1311, PART II, 1996

 *******************************************************************************

  
 ### CEA analysis performed on Tue 12-Oct-2021 14:56:12
  
 # Problem Type: "Rocket" (Infinite Area Combustor)
  
 prob case=_______________4132 ro frozen
  
 # Pressure (24 values):
 p,atm= 49, 50, 51, 52, 53, 54, 55, 56, 57, 58, 59, 60, 61, 62, 63, 64, 65, 66, 6
 7, 68, 69, 70, 71, 72
 # Supersonic Area Ratio (1 value):
 supar= 4
  
 # Oxidizer/Fuel Wt. ratio (31 values):
 o/f= 18.3, 18.5, 18.7, 18.9, 19.1, 19.3, 19.5, 19.7, 19.9, 20.1, 20.3, 20.5, 20.
 7, 20.9, 21.1, 21.3, 21.5, 21.7, 21.9, 22.1, 22.3, 2
  
 # You selected the following fuels and oxidizers:
 reac
 fuel paraffin          wt%=100.0000
 oxid N2O               wt%=100.0000
  
 # You selected these options for output:
 # short version of output
 output short
 # Proportions of any products will be expressed as Mass Fractions.
 output massf
 # Heat will be expressed as siunits
 output siunits
  
 # Input prepared by this script:/var/www/sites/cearun.grc.nasa.gov/cgi-bin/CEARU
 N/prepareInputFile.cgi
  
 ### IMPORTANT:  The following line is the end of your CEA input file!
 end

           THEORETICAL ROCKET PERFORMANCE ASSUMING FROZEN COMPOSITION

 Pin =   720.1 PSIA
 CASE = _______________

             REACTANT                    WT FRACTION      ENERGY      TEMP
                                          (SEE NOTE)     KJ/KG-MOL      K  
 FUEL        paraffin                     1.0000000  -1860600.000    298.150
 OXIDANT     N2O                          1.0000000         0.000      0.000

 O/F=   18.30000  %FUEL=  5.181347  R,EQ.RATIO= 0.499373  PHI,EQ.RATIO= 0.499373

                 CHAMBER   THROAT     EXIT
 Pinf/P            1.0000   1.8105   26.855
 P, BAR            49.649   27.423   1.8488
 T, K             2022.90  1789.20   993.88
 RHO, KG/CU M    8.7008 0 5.4336 0 6.5944-1
 H, KJ/KG         -96.234  -415.04 -1449.00
 U, KJ/KG         -666.86  -919.74 -1729.36
 G, KJ/KG        -16526.0 -14946.7 -9521.18
 S, KJ/(KG)(K)     8.1219   8.1219   8.1219

 M, (1/n)          29.475   29.475   29.475
 Cp, KJ/(KG)(K)    1.3743   1.3533   1.2286
 GAMMAs            1.2583   1.2633   1.2980
 SON VEL,M/SEC      847.4    798.5    603.3
 MACH NUMBER        0.000    1.000    2.727

 PERFORMANCE PARAMETERS

 Ae/At                      1.0000   4.0000
 CSTAR, M/SEC               1144.3   1144.3
 CF                         0.6978   1.4374
 Ivac, M/SEC                1430.6   1815.3
 Isp, M/SEC                  798.5   1644.8

 MASS FRACTIONS

 *CO             0.00006   *CO2            0.16607   HO2             0.00001
 H2O             0.05749   *NO             0.00640   NO2             0.00010
 *N2             0.60049   *O              0.00002   *OH             0.00051
 *O2             0.16885

  * THERMODYNAMIC PROPERTIES FITTED TO 20000.K

 NOTE. WEIGHT FRACTION OF FUEL IN TOTAL FUELS AND OF OXIDANT IN TOTAL OXIDANTS

           THEORETICAL ROCKET PERFORMANCE ASSUMING FROZEN COMPOSITION

 Pin =   734.8 PSIA
 CASE = _______________

             REACTANT                    WT FRACTION      ENERGY      TEMP
                                          (SEE NOTE)     KJ/KG-MOL      K  
 FUEL        paraffin                     1.0000000  -1860600.000    298.150
 OXIDANT     N2O                          1.0000000         0.000      0.000

 O/F=   18.30000  %FUEL=  5.181347  R,EQ.RATIO= 0.499373  PHI,EQ.RATIO= 0.499373

                 CHAMBER   THROAT     EXIT
 Pinf/P            1.0000   1.8105   26.855
 P, BAR            50.663   27.983   1.8865
 T, K             2022.92  1789.22   993.90
 RHO, KG/CU M    8.8783 0 5.5444 0 6.7289-1
 H, KJ/KG         -96.234  -415.04 -1449.01
 U, KJ/KG         -666.87  -919.75 -1729.37
 G, KJ/KG        -16514.6 -14936.7 -9515.65
 S, KJ/(KG)(K)     8.1162   8.1162   8.1162

 M, (1/n)          29.475   29.475   29.475
 Cp, KJ/(KG)(K)    1.3743   1.3533   1.2286
 GAMMAs            1.2583   1.2633   1.2980
 SON VEL,M/SEC      847.4    798.5    603.3
 MACH NUMBER        0.000    1.000    2.727

 PERFORMANCE PARAMETERS

 Ae/At                      1.0000   4.0000
 CSTAR, M/SEC               1144.3   1144.3
 CF                         0.6978   1.4374
 Ivac, M/SEC                1430.6   1815.3
 Isp, M/SEC                  798.5   1644.9

 MASS FRACTIONS

 *CO             0.00006   *CO2            0.16607   HO2             0.00001
 H2O             0.05749   *NO             0.00640   NO2             0.00010
 *N2             0.60049   *O              0.00002   *OH             0.00050
 *O2             0.16885

  * THERMODYNAMIC PROPERTIES FITTED TO 20000.K

 NOTE. WEIGHT FRACTION OF FUEL IN TOTAL FUELS AND OF OXIDANT IN TOTAL OXIDANTS

           THEORETICAL ROCKET PERFORMANCE ASSUMING FROZEN COMPOSITION

 Pin =   749.5 PSIA
 CASE = _______________

             REACTANT                    WT FRACTION      ENERGY      TEMP
                                          (SEE NOTE)     KJ/KG-MOL      K  
 FUEL        paraffin                     1.0000000  -1860600.000    298.150
 OXIDANT     N2O                          1.0000000         0.000      0.000

 O/F=   18.30000  %FUEL=  5.181347  R,EQ.RATIO= 0.499373  PHI,EQ.RATIO= 0.499373

                 CHAMBER   THROAT     EXIT
 Pinf/P            1.0000   1.8105   26.855
 P, BAR            51.676   28.543   1.9243
 T, K             2022.95  1789.24   993.91
 RHO, KG/CU M    9.0558 0 5.6552 0 6.8634-1
 H, KJ/KG         -96.234  -415.04 -1449.03
 U, KJ/KG         -666.87  -919.76 -1729.39
 G, KJ/KG        -16503.5 -14926.8 -9510.24
 S, KJ/(KG)(K)     8.1106   8.1106   8.1106

 M, (1/n)          29.475   29.475   29.475
 Cp, KJ/(KG)(K)    1.3743   1.3533   1.2286
 GAMMAs            1.2583   1.2633   1.2980
 SON VEL,M/SEC      847.4    798.5    603.3
 MACH NUMBER        0.000    1.000    2.727

 PERFORMANCE PARAMETERS

 Ae/At                      1.0000   4.0000
 CSTAR, M/SEC               1144.3   1144.3
 CF                         0.6978   1.4374
 Ivac, M/SEC                1430.6   1815.3
 Isp, M/SEC                  798.5   1644.9

 MASS FRACTIONS

 *CO             0.00006   *CO2            0.16607   HO2             0.00001
 H2O             0.05750   *NO             0.00640   NO2             0.00010
 *N2             0.60048   *O              0.00002   *OH             0.00050
 *O2             0.16885

  * THERMODYNAMIC PROPERTIES FITTED TO 20000.K

 NOTE. WEIGHT FRACTION OF FUEL IN TOTAL FUELS AND OF OXIDANT IN TOTAL OXIDANTS

           THEORETICAL ROCKET PERFORMANCE ASSUMING FROZEN COMPOSITION

 Pin =   764.2 PSIA
 CASE = _______________

             REACTANT                    WT FRACTION      ENERGY      TEMP
                                          (SEE NOTE)     KJ/KG-MOL      K  
 FUEL        paraffin                     1.0000000  -1860600.000    298.150
 OXIDANT     N2O                          1.0000000         0.000      0.000

 O/F=   18.30000  %FUEL=  5.181347  R,EQ.RATIO= 0.499373  PHI,EQ.RATIO= 0.499373

                 CHAMBER   THROAT     EXIT
 Pinf/P            1.0000   1.8105   26.855
 P, BAR            52.689   29.102   1.9620
 T, K             2022.97  1789.26   993.93
 RHO, KG/CU M    9.2332 0 5.7661 0 6.9979-1
 H, KJ/KG         -96.234  -415.04 -1449.04
 U, KJ/KG         -666.88  -919.76 -1729.41
 G, KJ/KG        -16492.6 -14917.2 -9504.92
 S, KJ/(KG)(K)     8.1051   8.1051   8.1051

 M, (1/n)          29.475   29.475   29.475
 Cp, KJ/(KG)(K)    1.3743   1.3533   1.2286
 GAMMAs            1.2583   1.2633   1.2980
 SON VEL,M/SEC      847.4    798.5    603.3
 MACH NUMBER        0.000    1.000    2.727

 PERFORMANCE PARAMETERS

 Ae/At                      1.0000   4.0000
 CSTAR, M/SEC               1144.4   1144.4
 CF                         0.6978   1.4374
 Ivac, M/SEC                1430.6   1815.3
 Isp, M/SEC                  798.5   1644.9

 MASS FRACTIONS

 *CO             0.00006   *CO2            0.16607   HO2             0.00001
 H2O             0.05750   *NO             0.00640   NO2             0.00010
 *N2             0.60048   *O              0.00002   *OH             0.00050
 *O2             0.16885

  * THERMODYNAMIC PROPERTIES FITTED TO 20000.K

 NOTE. WEIGHT FRACTION OF FUEL IN TOTAL FUELS AND OF OXIDANT IN TOTAL OXIDANTS

           THEORETICAL ROCKET PERFORMANCE ASSUMING FROZEN COMPOSITION

 Pin =   778.9 PSIA
 CASE = _______________

             REACTANT                    WT FRACTION      ENERGY      TEMP
                                          (SEE NOTE)     KJ/KG-MOL      K  
 FUEL        paraffin                     1.0000000  -1860600.000    298.150
 OXIDANT     N2O                          1.0000000         0.000      0.000

 O/F=   18.30000  %FUEL=  5.181347  R,EQ.RATIO= 0.499373  PHI,EQ.RATIO= 0.499373

                 CHAMBER   THROAT     EXIT
 Pinf/P            1.0000   1.8105   26.855
 P, BAR            53.702   29.662   1.9997
 T, K             2022.99  1789.28   993.94
 RHO, KG/CU M    9.4107 0 5.8769 0 7.1324-1
 H, KJ/KG         -96.234  -415.05 -1449.05
 U, KJ/KG         -666.88  -919.77 -1729.42
 G, KJ/KG        -16481.9 -14907.7 -9499.70
 S, KJ/(KG)(K)     8.0997   8.0997   8.0997

 M, (1/n)          29.475   29.475   29.475
 Cp, KJ/(KG)(K)    1.3743   1.3533   1.2286
 GAMMAs            1.2583   1.2633   1.2980
 SON VEL,M/SEC      847.4    798.5    603.3
 MACH NUMBER        0.000    1.000    2.727

 PERFORMANCE PARAMETERS

 Ae/At                      1.0000   4.0000
 CSTAR, M/SEC               1144.4   1144.4
 CF                         0.6978   1.4374
 Ivac, M/SEC                1430.6   1815.3
 Isp, M/SEC                  798.5   1644.9

 MASS FRACTIONS

 *CO             0.00006   *CO2            0.16608   HO2             0.00001
 H2O             0.05750   *NO             0.00640   NO2             0.00010
 *N2             0.60048   *O              0.00002   *OH             0.00050
 *O2             0.16885

  * THERMODYNAMIC PROPERTIES FITTED TO 20000.K

 NOTE. WEIGHT FRACTION OF FUEL IN TOTAL FUELS AND OF OXIDANT IN TOTAL OXIDANTS

           THEORETICAL ROCKET PERFORMANCE ASSUMING FROZEN COMPOSITION

 Pin =   793.6 PSIA
 CASE = _______________

             REACTANT                    WT FRACTION      ENERGY      TEMP
                                          (SEE NOTE)     KJ/KG-MOL      K  
 FUEL        paraffin                     1.0000000  -1860600.000    298.150
 OXIDANT     N2O                          1.0000000         0.000      0.000

 O/F=   18.30000  %FUEL=  5.181347  R,EQ.RATIO= 0.499373  PHI,EQ.RATIO= 0.499373

                 CHAMBER   THROAT     EXIT
 Pinf/P            1.0000   1.8105   26.855
 P, BAR            54.715   30.222   2.0375
 T, K             2023.01  1789.30   993.95
 RHO, KG/CU M    9.5882 0 5.9877 0 7.2669-1
 H, KJ/KG         -96.234  -415.05 -1449.06
 U, KJ/KG         -666.89  -919.78 -1729.44
 G, KJ/KG        -16471.4 -14898.5 -9494.59
 S, KJ/(KG)(K)     8.0945   8.0945   8.0945

 M, (1/n)          29.476   29.476   29.476
 Cp, KJ/(KG)(K)    1.3743   1.3533   1.2286
 GAMMAs            1.2583   1.2633   1.2980
 SON VEL,M/SEC      847.4    798.5    603.3
 MACH NUMBER        0.000    1.000    2.727

 PERFORMANCE PARAMETERS

 Ae/At                      1.0000   4.0000
 CSTAR, M/SEC               1144.4   1144.4
 CF                         0.6978   1.4374
 Ivac, M/SEC                1430.6   1815.3
 Isp, M/SEC                  798.5   1644.9

 MASS FRACTIONS

 *CO             0.00006   *CO2            0.16608   HO2             0.00001
 H2O             0.05750   *NO             0.00640   NO2             0.00010
 *N2             0.60048   *O              0.00002   *OH             0.00049
 *O2             0.16885

  * THERMODYNAMIC PROPERTIES FITTED TO 20000.K

 NOTE. WEIGHT FRACTION OF FUEL IN TOTAL FUELS AND OF OXIDANT IN TOTAL OXIDANTS

           THEORETICAL ROCKET PERFORMANCE ASSUMING FROZEN COMPOSITION

 Pin =   808.3 PSIA
 CASE = _______________

             REACTANT                    WT FRACTION      ENERGY      TEMP
                                          (SEE NOTE)     KJ/KG-MOL      K  
 FUEL        paraffin                     1.0000000  -1860600.000    298.150
 OXIDANT     N2O                          1.0000000         0.000      0.000

 O/F=   18.30000  %FUEL=  5.181347  R,EQ.RATIO= 0.499373  PHI,EQ.RATIO= 0.499373

                 CHAMBER   THROAT     EXIT
 Pinf/P            1.0000   1.8105   26.855
 P, BAR            55.729   30.781   2.0752
 T, K             2023.03  1789.32   993.97
 RHO, KG/CU M    9.7657 0 6.0986 0 7.4014-1
 H, KJ/KG         -96.234  -415.05 -1449.08
 U, KJ/KG         -666.89  -919.78 -1729.45
 G, KJ/KG        -16461.1 -14889.4 -9489.56
 S, KJ/(KG)(K)     8.0893   8.0893   8.0893

 M, (1/n)          29.476   29.476   29.476
 Cp, KJ/(KG)(K)    1.3743   1.3533   1.2286
 GAMMAs            1.2583   1.2633   1.2980
 SON VEL,M/SEC      847.4    798.5    603.3
 MACH NUMBER        0.000    1.000    2.727

 PERFORMANCE PARAMETERS

 Ae/At                      1.0000   4.0000
 CSTAR, M/SEC               1144.4   1144.4
 CF                         0.6978   1.4374
 Ivac, M/SEC                1430.6   1815.3
 Isp, M/SEC                  798.5   1644.9

 MASS FRACTIONS

 *CO             0.00006   *CO2            0.16608   HO2             0.00001
 H2O             0.05750   *NO             0.00640   NO2             0.00011
 *N2             0.60048   *O              0.00002   *OH             0.00049
 *O2             0.16885

  * THERMODYNAMIC PROPERTIES FITTED TO 20000.K

 NOTE. WEIGHT FRACTION OF FUEL IN TOTAL FUELS AND OF OXIDANT IN TOTAL OXIDANTS

           THEORETICAL ROCKET PERFORMANCE ASSUMING FROZEN COMPOSITION

 Pin =   823.0 PSIA
 CASE = _______________

             REACTANT                    WT FRACTION      ENERGY      TEMP
                                          (SEE NOTE)     KJ/KG-MOL      K  
 FUEL        paraffin                     1.0000000  -1860600.000    298.150
 OXIDANT     N2O                          1.0000000         0.000      0.000

 O/F=   18.30000  %FUEL=  5.181347  R,EQ.RATIO= 0.499373  PHI,EQ.RATIO= 0.499373

                 CHAMBER   THROAT     EXIT
 Pinf/P            1.0000   1.8105   26.855
 P, BAR            56.742   31.341   2.1129
 T, K             2023.05  1789.34   993.98
 RHO, KG/CU M    9.9432 0 6.2094 0 7.5359-1
 H, KJ/KG         -96.234  -415.05 -1449.09
 U, KJ/KG         -666.90  -919.79 -1729.47
 G, KJ/KG        -16451.0 -14880.4 -9484.63
 S, KJ/(KG)(K)     8.0842   8.0842   8.0842

 M, (1/n)          29.476   29.476   29.476
 Cp, KJ/(KG)(K)    1.3743   1.3533   1.2286
 GAMMAs            1.2583   1.2633   1.2980
 SON VEL,M/SEC      847.4    798.5    603.3
 MACH NUMBER        0.000    1.000    2.727

 PERFORMANCE PARAMETERS

 Ae/At                     1.00000   4.0000
 CSTAR, M/SEC               1144.4   1144.4
 CF                         0.6978   1.4374
 Ivac, M/SEC                1430.6   1815.4
 Isp, M/SEC                  798.5   1644.9

 MASS FRACTIONS

 *CO             0.00006   *CO2            0.16608   HO2             0.00001
 H2O             0.05750   *NO             0.00640   NO2             0.00011
 *N2             0.60048   *O              0.00002   *OH             0.00049
 *O2             0.16885

  * THERMODYNAMIC PROPERTIES FITTED TO 20000.K

 NOTE. WEIGHT FRACTION OF FUEL IN TOTAL FUELS AND OF OXIDANT IN TOTAL OXIDANTS

           THEORETICAL ROCKET PERFORMANCE ASSUMING FROZEN COMPOSITION

 Pin =   837.7 PSIA
 CASE = _______________

             REACTANT                    WT FRACTION      ENERGY      TEMP
                                          (SEE NOTE)     KJ/KG-MOL      K  
 FUEL        paraffin                     1.0000000  -1860600.000    298.150
 OXIDANT     N2O                          1.0000000         0.000      0.000

 O/F=   18.30000  %FUEL=  5.181347  R,EQ.RATIO= 0.499373  PHI,EQ.RATIO= 0.499373

                 CHAMBER   THROAT     EXIT
 Pinf/P            1.0000   1.8105   26.854
 P, BAR            57.755   31.901   2.1507
 T, K             2023.07  1789.35   993.99
 RHO, KG/CU M    1.0121 1 6.3202 0 7.6704-1
 H, KJ/KG         -96.234  -415.06 -1449.10
 U, KJ/KG         -666.90  -919.80 -1729.48
 G, KJ/KG        -16441.1 -14871.6 -9479.78
 S, KJ/(KG)(K)     8.0792   8.0792   8.0792

 M, (1/n)          29.476   29.476   29.476
 Cp, KJ/(KG)(K)    1.3743   1.3533   1.2286
 GAMMAs            1.2583   1.2633   1.2980
 SON VEL,M/SEC      847.4    798.5    603.3
 MACH NUMBER        0.000    1.000    2.727

 PERFORMANCE PARAMETERS

 Ae/At                     1.00000   4.0000
 CSTAR, M/SEC               1144.4   1144.4
 CF                         0.6978   1.4374
 Ivac, M/SEC                1430.6   1815.4
 Isp, M/SEC                  798.5   1644.9

 MASS FRACTIONS

 *CO             0.00006   *CO2            0.16608   HO2             0.00001
 H2O             0.05750   *NO             0.00640   NO2             0.00011
 *N2             0.60048   *O              0.00002   *OH             0.00049
 *O2             0.16885

  * THERMODYNAMIC PROPERTIES FITTED TO 20000.K

 NOTE. WEIGHT FRACTION OF FUEL IN TOTAL FUELS AND OF OXIDANT IN TOTAL OXIDANTS

           THEORETICAL ROCKET PERFORMANCE ASSUMING FROZEN COMPOSITION

 Pin =   852.4 PSIA
 CASE = _______________

             REACTANT                    WT FRACTION      ENERGY      TEMP
                                          (SEE NOTE)     KJ/KG-MOL      K  
 FUEL        paraffin                     1.0000000  -1860600.000    298.150
 OXIDANT     N2O                          1.0000000         0.000      0.000

 O/F=   18.30000  %FUEL=  5.181347  R,EQ.RATIO= 0.499373  PHI,EQ.RATIO= 0.499373

                 CHAMBER   THROAT     EXIT
 Pinf/P            1.0000   1.8105   26.854
 P, BAR            58.768   32.460   2.1884
 T, K             2023.09  1789.37   994.00
 RHO, KG/CU M    1.0298 1 6.4311 0 7.8049-1
 H, KJ/KG         -96.234  -415.06 -1449.11
 U, KJ/KG         -666.91  -919.80 -1729.50
 G, KJ/KG        -16431.3 -14863.0 -9475.01
 S, KJ/(KG)(K)     8.0743   8.0743   8.0743

 M, (1/n)          29.476   29.476   29.476
 Cp, KJ/(KG)(K)    1.3743   1.3533   1.2286
 GAMMAs            1.2583   1.2633   1.2980
 SON VEL,M/SEC      847.4    798.5    603.3
 MACH NUMBER        0.000    1.000    2.727

 PERFORMANCE PARAMETERS

 Ae/At                      1.0000   4.0000
 CSTAR, M/SEC               1144.4   1144.4
 CF                         0.6978   1.4374
 Ivac, M/SEC                1430.6   1815.4
 Isp, M/SEC                  798.5   1644.9

 MASS FRACTIONS

 *CO             0.00006   *CO2            0.16608   HO2             0.00001
 H2O             0.05750   *NO             0.00640   NO2             0.00011
 *N2             0.60048   *O              0.00002   *OH             0.00049
 *O2             0.16885

  * THERMODYNAMIC PROPERTIES FITTED TO 20000.K

 NOTE. WEIGHT FRACTION OF FUEL IN TOTAL FUELS AND OF OXIDANT IN TOTAL OXIDANTS

           THEORETICAL ROCKET PERFORMANCE ASSUMING FROZEN COMPOSITION

 Pin =   867.1 PSIA
 CASE = _______________

             REACTANT                    WT FRACTION      ENERGY      TEMP
                                          (SEE NOTE)     KJ/KG-MOL      K  
 FUEL        paraffin                     1.0000000  -1860600.000    298.150
 OXIDANT     N2O                          1.0000000         0.000      0.000

 O/F=   18.30000  %FUEL=  5.181347  R,EQ.RATIO= 0.499373  PHI,EQ.RATIO= 0.499373

                 CHAMBER   THROAT     EXIT
 Pinf/P            1.0000   1.8105   26.854
 P, BAR            59.782   33.020   2.2262
 T, K             2023.11  1789.39   994.02
 RHO, KG/CU M    1.0476 1 6.5419 0 7.9394-1
 H, KJ/KG         -96.234  -415.06 -1449.12
 U, KJ/KG         -666.91  -919.81 -1729.51
 G, KJ/KG        -16421.7 -14854.5 -9470.33
 S, KJ/(KG)(K)     8.0695   8.0695   8.0695

 M, (1/n)          29.476   29.476   29.476
 Cp, KJ/(KG)(K)    1.3743   1.3533   1.2286
 GAMMAs            1.2583   1.2633   1.2980
 SON VEL,M/SEC      847.4    798.5    603.3
 MACH NUMBER        0.000    1.000    2.727

 PERFORMANCE PARAMETERS

 Ae/At                      1.0000   4.0000
 CSTAR, M/SEC               1144.4   1144.4
 CF                         0.6978   1.4374
 Ivac, M/SEC                1430.6   1815.4
 Isp, M/SEC                  798.5   1644.9

 MASS FRACTIONS

 *CO             0.00006   *CO2            0.16608   HO2             0.00001
 H2O             0.05751   *NO             0.00640   NO2             0.00011
 *N2             0.60048   *O              0.00002   *OH             0.00048
 *O2             0.16885

  * THERMODYNAMIC PROPERTIES FITTED TO 20000.K

 NOTE. WEIGHT FRACTION OF FUEL IN TOTAL FUELS AND OF OXIDANT IN TOTAL OXIDANTS

           THEORETICAL ROCKET PERFORMANCE ASSUMING FROZEN COMPOSITION

 Pin =   881.8 PSIA
 CASE = _______________

             REACTANT                    WT FRACTION      ENERGY      TEMP
                                          (SEE NOTE)     KJ/KG-MOL      K  
 FUEL        paraffin                     1.0000000  -1860600.000    298.150
 OXIDANT     N2O                          1.0000000         0.000      0.000

 O/F=   18.30000  %FUEL=  5.181347  R,EQ.RATIO= 0.499373  PHI,EQ.RATIO= 0.499373

                 CHAMBER   THROAT     EXIT
 Pinf/P            1.0000   1.8105   26.854
 P, BAR            60.795   33.580   2.2639
 T, K             2023.13  1789.41   994.03
 RHO, KG/CU M    1.0653 1 6.6527 0 8.0739-1
 H, KJ/KG         -96.234  -415.06 -1449.13
 U, KJ/KG         -666.92  -919.82 -1729.52
 G, KJ/KG        -16412.2 -14846.2 -9465.72
 S, KJ/(KG)(K)     8.0647   8.0647   8.0647

 M, (1/n)          29.476   29.476   29.476
 Cp, KJ/(KG)(K)    1.3743   1.3533   1.2286
 GAMMAs            1.2583   1.2633   1.2980
 SON VEL,M/SEC      847.4    798.5    603.3
 MACH NUMBER        0.000    1.000    2.727

 PERFORMANCE PARAMETERS

 Ae/At                     1.00000   4.0000
 CSTAR, M/SEC               1144.4   1144.4
 CF                         0.6978   1.4374
 Ivac, M/SEC                1430.6   1815.4
 Isp, M/SEC                  798.5   1644.9

 MASS FRACTIONS

 *CO             0.00005   *CO2            0.16608   HO2             0.00001
 H2O             0.05751   *NO             0.00640   NO2             0.00011
 *N2             0.60048   *O              0.00002   *OH             0.00048
 *O2             0.16885

  * THERMODYNAMIC PROPERTIES FITTED TO 20000.K

 NOTE. WEIGHT FRACTION OF FUEL IN TOTAL FUELS AND OF OXIDANT IN TOTAL OXIDANTS

           THEORETICAL ROCKET PERFORMANCE ASSUMING FROZEN COMPOSITION

 Pin =   896.5 PSIA
 CASE = _______________

             REACTANT                    WT FRACTION      ENERGY      TEMP
                                          (SEE NOTE)     KJ/KG-MOL      K  
 FUEL        paraffin                     1.0000000  -1860600.000    298.150
 OXIDANT     N2O                          1.0000000         0.000      0.000

 O/F=   18.30000  %FUEL=  5.181347  R,EQ.RATIO= 0.499373  PHI,EQ.RATIO= 0.499373

                 CHAMBER   THROAT     EXIT
 Pinf/P            1.0000   1.8105   26.854
 P, BAR            61.808   34.139   2.3016
 T, K             2023.14  1789.42   994.04
 RHO, KG/CU M    1.0831 1 6.7635 0 8.2085-1
 H, KJ/KG         -96.234  -415.07 -1449.14
 U, KJ/KG         -666.92  -919.82 -1729.54
 G, KJ/KG        -16403.0 -14838.0 -9461.19
 S, KJ/(KG)(K)     8.0601   8.0601   8.0601

 M, (1/n)          29.476   29.476   29.476
 Cp, KJ/(KG)(K)    1.3743   1.3533   1.2286
 GAMMAs            1.2583   1.2633   1.2980
 SON VEL,M/SEC      847.4    798.5    603.3
 MACH NUMBER        0.000    1.000    2.727

 PERFORMANCE PARAMETERS

 Ae/At                      1.0000   4.0000
 CSTAR, M/SEC               1144.4   1144.4
 CF                         0.6978   1.4374
 Ivac, M/SEC                1430.6   1815.4
 Isp, M/SEC                  798.5   1644.9

 MASS FRACTIONS

 *CO             0.00005   *CO2            0.16608   HO2             0.00001
 H2O             0.05751   *NO             0.00640   NO2             0.00011
 *N2             0.60048   *O              0.00002   *OH             0.00048
 *O2             0.16885

  * THERMODYNAMIC PROPERTIES FITTED TO 20000.K

 NOTE. WEIGHT FRACTION OF FUEL IN TOTAL FUELS AND OF OXIDANT IN TOTAL OXIDANTS

           THEORETICAL ROCKET PERFORMANCE ASSUMING FROZEN COMPOSITION

 Pin =   911.2 PSIA
 CASE = _______________

             REACTANT                    WT FRACTION      ENERGY      TEMP
                                          (SEE NOTE)     KJ/KG-MOL      K  
 FUEL        paraffin                     1.0000000  -1860600.000    298.150
 OXIDANT     N2O                          1.0000000         0.000      0.000

 O/F=   18.30000  %FUEL=  5.181347  R,EQ.RATIO= 0.499373  PHI,EQ.RATIO= 0.499373

                 CHAMBER   THROAT     EXIT
 Pinf/P            1.0000   1.8105   26.854
 P, BAR            62.822   34.699   2.3394
 T, K             2023.16  1789.44   994.05
 RHO, KG/CU M    1.1008 1 6.8744 0 8.3430-1
 H, KJ/KG         -96.234  -415.07 -1449.15
 U, KJ/KG         -666.92  -919.83 -1729.55
 G, KJ/KG        -16393.8 -14829.9 -9456.73
 S, KJ/(KG)(K)     8.0555   8.0555   8.0555

 M, (1/n)          29.476   29.476   29.476
 Cp, KJ/(KG)(K)    1.3743   1.3533   1.2286
 GAMMAs            1.2583   1.2633   1.2980
 SON VEL,M/SEC      847.4    798.5    603.3
 MACH NUMBER        0.000    1.000    2.727

 PERFORMANCE PARAMETERS

 Ae/At                      1.0000   4.0000
 CSTAR, M/SEC               1144.4   1144.4
 CF                         0.6978   1.4374
 Ivac, M/SEC                1430.6   1815.4
 Isp, M/SEC                  798.5   1644.9

 MASS FRACTIONS

 *CO             0.00005   *CO2            0.16608   HO2             0.00001
 H2O             0.05751   *NO             0.00640   NO2             0.00011
 *N2             0.60048   *O              0.00002   *OH             0.00048
 *O2             0.16885

  * THERMODYNAMIC PROPERTIES FITTED TO 20000.K

 NOTE. WEIGHT FRACTION OF FUEL IN TOTAL FUELS AND OF OXIDANT IN TOTAL OXIDANTS

           THEORETICAL ROCKET PERFORMANCE ASSUMING FROZEN COMPOSITION

 Pin =   925.8 PSIA
 CASE = _______________

             REACTANT                    WT FRACTION      ENERGY      TEMP
                                          (SEE NOTE)     KJ/KG-MOL      K  
 FUEL        paraffin                     1.0000000  -1860600.000    298.150
 OXIDANT     N2O                          1.0000000         0.000      0.000

 O/F=   18.30000  %FUEL=  5.181347  R,EQ.RATIO= 0.499373  PHI,EQ.RATIO= 0.499373

                 CHAMBER   THROAT     EXIT
 Pinf/P            1.0000   1.8105   26.854
 P, BAR            63.835   35.259   2.3771
 T, K             2023.18  1789.45   994.06
 RHO, KG/CU M    1.1185 1 6.9852 0 8.4775-1
 H, KJ/KG         -96.234  -415.07 -1449.16
 U, KJ/KG         -666.93  -919.83 -1729.56
 G, KJ/KG        -16384.8 -14821.9 -9452.34
 S, KJ/(KG)(K)     8.0510   8.0510   8.0510

 M, (1/n)          29.476   29.476   29.476
 Cp, KJ/(KG)(K)    1.3743   1.3533   1.2286
 GAMMAs            1.2583   1.2633   1.2980
 SON VEL,M/SEC      847.4    798.5    603.3
 MACH NUMBER        0.000    1.000    2.727

 PERFORMANCE PARAMETERS

 Ae/At                     1.00000   4.0000
 CSTAR, M/SEC               1144.4   1144.4
 CF                         0.6978   1.4374
 Ivac, M/SEC                1430.7   1815.4
 Isp, M/SEC                  798.5   1644.9

 MASS FRACTIONS

 *CO             0.00005   *CO2            0.16608   HO2             0.00001
 H2O             0.05751   *NO             0.00640   NO2             0.00011
 *N2             0.60048   *O              0.00002   *OH             0.00048
 *O2             0.16885

  * THERMODYNAMIC PROPERTIES FITTED TO 20000.K

 NOTE. WEIGHT FRACTION OF FUEL IN TOTAL FUELS AND OF OXIDANT IN TOTAL OXIDANTS

           THEORETICAL ROCKET PERFORMANCE ASSUMING FROZEN COMPOSITION

 Pin =   940.5 PSIA
 CASE = _______________

             REACTANT                    WT FRACTION      ENERGY      TEMP
                                          (SEE NOTE)     KJ/KG-MOL      K  
 FUEL        paraffin                     1.0000000  -1860600.000    298.150
 OXIDANT     N2O                          1.0000000         0.000      0.000

 O/F=   18.30000  %FUEL=  5.181347  R,EQ.RATIO= 0.499373  PHI,EQ.RATIO= 0.499373

                 CHAMBER   THROAT     EXIT
 Pinf/P            1.0000   1.8105   26.854
 P, BAR            64.848   35.819   2.4148
 T, K             2023.20  1789.47   994.07
 RHO, KG/CU M    1.1363 1 7.0960 0 8.6120-1
 H, KJ/KG         -96.234  -415.07 -1449.17
 U, KJ/KG         -666.93  -919.84 -1729.58
 G, KJ/KG        -16376.0 -14814.1 -9448.02
 S, KJ/(KG)(K)     8.0465   8.0465   8.0465

 M, (1/n)          29.476   29.476   29.476
 Cp, KJ/(KG)(K)    1.3743   1.3533   1.2286
 GAMMAs            1.2583   1.2633   1.2980
 SON VEL,M/SEC      847.4    798.6    603.3
 MACH NUMBER        0.000    1.000    2.727

 PERFORMANCE PARAMETERS

 Ae/At                      1.0000   4.0000
 CSTAR, M/SEC               1144.4   1144.4
 CF                         0.6978   1.4374
 Ivac, M/SEC                1430.7   1815.4
 Isp, M/SEC                  798.5   1645.0

 MASS FRACTIONS

 *CO             0.00005   *CO2            0.16608   HO2             0.00001
 H2O             0.05751   *NO             0.00640   NO2             0.00011
 *N2             0.60048   *O              0.00002   *OH             0.00047
 *O2             0.16885

  * THERMODYNAMIC PROPERTIES FITTED TO 20000.K

 NOTE. WEIGHT FRACTION OF FUEL IN TOTAL FUELS AND OF OXIDANT IN TOTAL OXIDANTS

           THEORETICAL ROCKET PERFORMANCE ASSUMING FROZEN COMPOSITION

 Pin =   955.2 PSIA
 CASE = _______________

             REACTANT                    WT FRACTION      ENERGY      TEMP
                                          (SEE NOTE)     KJ/KG-MOL      K  
 FUEL        paraffin                     1.0000000  -1860600.000    298.150
 OXIDANT     N2O                          1.0000000         0.000      0.000

 O/F=   18.30000  %FUEL=  5.181347  R,EQ.RATIO= 0.499373  PHI,EQ.RATIO= 0.499373

                 CHAMBER   THROAT     EXIT
 Pinf/P            1.0000   1.8105   26.854
 P, BAR            65.861   36.378   2.4526
 T, K             2023.21  1789.49   994.08
 RHO, KG/CU M    1.1540 1 7.2069 0 8.7465-1
 H, KJ/KG         -96.234  -415.07 -1449.18
 U, KJ/KG         -666.93  -919.85 -1729.59
 G, KJ/KG        -16367.2 -14806.4 -9443.77
 S, KJ/(KG)(K)     8.0422   8.0422   8.0422

 M, (1/n)          29.476   29.476   29.476
 Cp, KJ/(KG)(K)    1.3743   1.3533   1.2286
 GAMMAs            1.2583   1.2633   1.2980
 SON VEL,M/SEC      847.4    798.6    603.3
 MACH NUMBER        0.000    1.000    2.727

 PERFORMANCE PARAMETERS

 Ae/At                     1.00000   4.0000
 CSTAR, M/SEC               1144.4   1144.4
 CF                         0.6978   1.4374
 Ivac, M/SEC                1430.7   1815.4
 Isp, M/SEC                  798.5   1645.0

 MASS FRACTIONS

 *CO             0.00005   *CO2            0.16608   HO2             0.00001
 H2O             0.05751   *NO             0.00640   NO2             0.00011
 *N2             0.60048   *O              0.00002   *OH             0.00047
 *O2             0.16885

  * THERMODYNAMIC PROPERTIES FITTED TO 20000.K

 NOTE. WEIGHT FRACTION OF FUEL IN TOTAL FUELS AND OF OXIDANT IN TOTAL OXIDANTS

           THEORETICAL ROCKET PERFORMANCE ASSUMING FROZEN COMPOSITION

 Pin =   969.9 PSIA
 CASE = _______________

             REACTANT                    WT FRACTION      ENERGY      TEMP
                                          (SEE NOTE)     KJ/KG-MOL      K  
 FUEL        paraffin                     1.0000000  -1860600.000    298.150
 OXIDANT     N2O                          1.0000000         0.000      0.000

 O/F=   18.30000  %FUEL=  5.181347  R,EQ.RATIO= 0.499373  PHI,EQ.RATIO= 0.499373

                 CHAMBER   THROAT     EXIT
 Pinf/P            1.0000   1.8105   26.854
 P, BAR            66.874   36.938   2.4903
 T, K             2023.23  1789.50   994.09
 RHO, KG/CU M    1.1718 1 7.3177 0 8.8810-1
 H, KJ/KG         -96.234  -415.08 -1449.19
 U, KJ/KG         -666.94  -919.85 -1729.60
 G, KJ/KG        -16358.7 -14798.8 -9439.58
 S, KJ/(KG)(K)     8.0379   8.0379   8.0379

 M, (1/n)          29.476   29.476   29.476
 Cp, KJ/(KG)(K)    1.3743   1.3533   1.2286
 GAMMAs            1.2583   1.2633   1.2980
 SON VEL,M/SEC      847.4    798.6    603.3
 MACH NUMBER        0.000    1.000    2.727

 PERFORMANCE PARAMETERS

 Ae/At                      1.0000   4.0000
 CSTAR, M/SEC               1144.4   1144.4
 CF                         0.6978   1.4374
 Ivac, M/SEC                1430.7   1815.4
 Isp, M/SEC                  798.6   1645.0

 MASS FRACTIONS

 *CO             0.00005   *CO2            0.16609   HO2             0.00001
 H2O             0.05751   *NO             0.00640   NO2             0.00012
 *N2             0.60048   *O              0.00002   *OH             0.00047
 *O2             0.16885

  * THERMODYNAMIC PROPERTIES FITTED TO 20000.K

 NOTE. WEIGHT FRACTION OF FUEL IN TOTAL FUELS AND OF OXIDANT IN TOTAL OXIDANTS

           THEORETICAL ROCKET PERFORMANCE ASSUMING FROZEN COMPOSITION

 Pin =   984.6 PSIA
 CASE = _______________

             REACTANT                    WT FRACTION      ENERGY      TEMP
                                          (SEE NOTE)     KJ/KG-MOL      K  
 FUEL        paraffin                     1.0000000  -1860600.000    298.150
 OXIDANT     N2O                          1.0000000         0.000      0.000

 O/F=   18.30000  %FUEL=  5.181347  R,EQ.RATIO= 0.499373  PHI,EQ.RATIO= 0.499373

                 CHAMBER   THROAT     EXIT
 Pinf/P            1.0000   1.8105   26.854
 P, BAR            67.888   37.498   2.5280
 T, K             2023.24  1789.51   994.10
 RHO, KG/CU M    1.1895 1 7.4285 0 9.0155-1
 H, KJ/KG         -96.234  -415.08 -1449.20
 U, KJ/KG         -666.94  -919.86 -1729.61
 G, KJ/KG        -16350.2 -14791.4 -9435.46
 S, KJ/(KG)(K)     8.0336   8.0336   8.0336

 M, (1/n)          29.476   29.476   29.476
 Cp, KJ/(KG)(K)    1.3743   1.3533   1.2286
 GAMMAs            1.2583   1.2633   1.2980
 SON VEL,M/SEC      847.4    798.6    603.3
 MACH NUMBER        0.000    1.000    2.727

 PERFORMANCE PARAMETERS

 Ae/At                      1.0000   4.0000
 CSTAR, M/SEC               1144.4   1144.4
 CF                         0.6978   1.4374
 Ivac, M/SEC                1430.7   1815.4
 Isp, M/SEC                  798.6   1645.0

 MASS FRACTIONS

 *CO             0.00005   *CO2            0.16609   HO2             0.00001
 H2O             0.05751   *NO             0.00640   NO2             0.00012
 *N2             0.60048   *O              0.00002   *OH             0.00047
 *O2             0.16885

  * THERMODYNAMIC PROPERTIES FITTED TO 20000.K

 NOTE. WEIGHT FRACTION OF FUEL IN TOTAL FUELS AND OF OXIDANT IN TOTAL OXIDANTS

           THEORETICAL ROCKET PERFORMANCE ASSUMING FROZEN COMPOSITION

 Pin =   999.3 PSIA
 CASE = _______________

             REACTANT                    WT FRACTION      ENERGY      TEMP
                                          (SEE NOTE)     KJ/KG-MOL      K  
 FUEL        paraffin                     1.0000000  -1860600.000    298.150
 OXIDANT     N2O                          1.0000000         0.000      0.000

 O/F=   18.30000  %FUEL=  5.181347  R,EQ.RATIO= 0.499373  PHI,EQ.RATIO= 0.499373

                 CHAMBER   THROAT     EXIT
 Pinf/P            1.0000   1.8105   26.854
 P, BAR            68.901   38.057   2.5658
 T, K             2023.26  1789.53   994.11
 RHO, KG/CU M    1.2073 1 7.5393 0 9.1500-1
 H, KJ/KG         -96.234  -415.08 -1449.21
 U, KJ/KG         -666.95  -919.86 -1729.62
 G, KJ/KG        -16341.9 -14784.0 -9431.39
 S, KJ/(KG)(K)     8.0294   8.0294   8.0294

 M, (1/n)          29.476   29.476   29.476
 Cp, KJ/(KG)(K)    1.3743   1.3533   1.2286
 GAMMAs            1.2583   1.2633   1.2980
 SON VEL,M/SEC      847.4    798.6    603.3
 MACH NUMBER        0.000    1.000    2.727

 PERFORMANCE PARAMETERS

 Ae/At                     1.00000   4.0000
 CSTAR, M/SEC               1144.4   1144.4
 CF                         0.6978   1.4374
 Ivac, M/SEC                1430.7   1815.4
 Isp, M/SEC                  798.6   1645.0

 MASS FRACTIONS

 *CO             0.00005   *CO2            0.16609   HO2             0.00001
 H2O             0.05751   *NO             0.00640   NO2             0.00012
 *N2             0.60048   *O              0.00002   *OH             0.00047
 *O2             0.16885

  * THERMODYNAMIC PROPERTIES FITTED TO 20000.K

 NOTE. WEIGHT FRACTION OF FUEL IN TOTAL FUELS AND OF OXIDANT IN TOTAL OXIDANTS

           THEORETICAL ROCKET PERFORMANCE ASSUMING FROZEN COMPOSITION

 Pin =  1014.0 PSIA
 CASE = _______________

             REACTANT                    WT FRACTION      ENERGY      TEMP
                                          (SEE NOTE)     KJ/KG-MOL      K  
 FUEL        paraffin                     1.0000000  -1860600.000    298.150
 OXIDANT     N2O                          1.0000000         0.000      0.000

 O/F=   18.30000  %FUEL=  5.181347  R,EQ.RATIO= 0.499373  PHI,EQ.RATIO= 0.499373

                 CHAMBER   THROAT     EXIT
 Pinf/P            1.0000   1.8105   26.854
 P, BAR            69.914   38.617   2.6035
 T, K             2023.27  1789.54   994.12
 RHO, KG/CU M    1.2250 1 7.6502 0 9.2845-1
 H, KJ/KG         -96.234  -415.08 -1449.22
 U, KJ/KG         -666.95  -919.87 -1729.63
 G, KJ/KG        -16333.7 -14776.7 -9427.39
 S, KJ/(KG)(K)     8.0253   8.0253   8.0253

 M, (1/n)          29.476   29.476   29.476
 Cp, KJ/(KG)(K)    1.3743   1.3533   1.2286
 GAMMAs            1.2583   1.2633   1.2980
 SON VEL,M/SEC      847.4    798.6    603.3
 MACH NUMBER        0.000    1.000    2.727

 PERFORMANCE PARAMETERS

 Ae/At                      1.0000   4.0000
 CSTAR, M/SEC               1144.4   1144.4
 CF                         0.6978   1.4374
 Ivac, M/SEC                1430.7   1815.4
 Isp, M/SEC                  798.6   1645.0

 MASS FRACTIONS

 *CO             0.00005   *CO2            0.16609   HO2             0.00001
 H2O             0.05751   *NO             0.00640   NO2             0.00012
 *N2             0.60048   *O              0.00002   *OH             0.00046
 *O2             0.16885

  * THERMODYNAMIC PROPERTIES FITTED TO 20000.K

 NOTE. WEIGHT FRACTION OF FUEL IN TOTAL FUELS AND OF OXIDANT IN TOTAL OXIDANTS

           THEORETICAL ROCKET PERFORMANCE ASSUMING FROZEN COMPOSITION

 Pin =  1028.7 PSIA
 CASE = _______________

             REACTANT                    WT FRACTION      ENERGY      TEMP
                                          (SEE NOTE)     KJ/KG-MOL      K  
 FUEL        paraffin                     1.0000000  -1860600.000    298.150
 OXIDANT     N2O                          1.0000000         0.000      0.000

 O/F=   18.30000  %FUEL=  5.181347  R,EQ.RATIO= 0.499373  PHI,EQ.RATIO= 0.499373

                 CHAMBER   THROAT     EXIT
 Pinf/P            1.0000   1.8105   26.854
 P, BAR            70.927   39.177   2.6413
 T, K             2023.29  1789.56   994.13
 RHO, KG/CU M    1.2428 1 7.7610 0 9.4190-1
 H, KJ/KG         -96.234  -415.08 -1449.22
 U, KJ/KG         -666.95  -919.87 -1729.64
 G, KJ/KG        -16325.6 -14769.6 -9423.44
 S, KJ/(KG)(K)     8.0213   8.0213   8.0213

 M, (1/n)          29.476   29.476   29.476
 Cp, KJ/(KG)(K)    1.3743   1.3533   1.2286
 GAMMAs            1.2583   1.2633   1.2980
 SON VEL,M/SEC      847.4    798.6    603.3
 MACH NUMBER        0.000    1.000    2.727

 PERFORMANCE PARAMETERS

 Ae/At                      1.0000   4.0000
 CSTAR, M/SEC               1144.4   1144.4
 CF                         0.6978   1.4374
 Ivac, M/SEC                1430.7   1815.5
 Isp, M/SEC                  798.6   1645.0

 MASS FRACTIONS

 *CO             0.00005   *CO2            0.16609   HO2             0.00001
 H2O             0.05752   *NO             0.00640   NO2             0.00012
 *N2             0.60048   *O              0.00002   *OH             0.00046
 *O2             0.16885

  * THERMODYNAMIC PROPERTIES FITTED TO 20000.K

 NOTE. WEIGHT FRACTION OF FUEL IN TOTAL FUELS AND OF OXIDANT IN TOTAL OXIDANTS

           THEORETICAL ROCKET PERFORMANCE ASSUMING FROZEN COMPOSITION

 Pin =  1043.4 PSIA
 CASE = _______________

             REACTANT                    WT FRACTION      ENERGY      TEMP
                                          (SEE NOTE)     KJ/KG-MOL      K  
 FUEL        paraffin                     1.0000000  -1860600.000    298.150
 OXIDANT     N2O                          1.0000000         0.000      0.000

 O/F=   18.30000  %FUEL=  5.181347  R,EQ.RATIO= 0.499373  PHI,EQ.RATIO= 0.499373

                 CHAMBER   THROAT     EXIT
 Pinf/P            1.0000   1.8105   26.854
 P, BAR            71.941   39.736   2.6790
 T, K             2023.30  1789.57   994.14
 RHO, KG/CU M    1.2605 1 7.8718 0 9.5534-1
 H, KJ/KG         -96.234  -415.09 -1449.23
 U, KJ/KG         -666.96  -919.88 -1729.65
 G, KJ/KG        -16317.6 -14762.5 -9419.54
 S, KJ/(KG)(K)     8.0173   8.0173   8.0173

 M, (1/n)          29.476   29.476   29.476
 Cp, KJ/(KG)(K)    1.3743   1.3533   1.2286
 GAMMAs            1.2583   1.2633   1.2980
 SON VEL,M/SEC      847.4    798.6    603.3
 MACH NUMBER        0.000    1.000    2.727

 PERFORMANCE PARAMETERS

 Ae/At                      1.0000   4.0000
 CSTAR, M/SEC               1144.4   1144.4
 CF                         0.6978   1.4374
 Ivac, M/SEC                1430.7   1815.5
 Isp, M/SEC                  798.6   1645.0

 MASS FRACTIONS

 *CO             0.00005   *CO2            0.16609   HO2             0.00001
 H2O             0.05752   *NO             0.00640   NO2             0.00012
 *N2             0.60048   *O              0.00002   *OH             0.00046
 *O2             0.16885

  * THERMODYNAMIC PROPERTIES FITTED TO 20000.K

 NOTE. WEIGHT FRACTION OF FUEL IN TOTAL FUELS AND OF OXIDANT IN TOTAL OXIDANTS

           THEORETICAL ROCKET PERFORMANCE ASSUMING FROZEN COMPOSITION

 Pin =  1058.1 PSIA
 CASE = _______________

             REACTANT                    WT FRACTION      ENERGY      TEMP
                                          (SEE NOTE)     KJ/KG-MOL      K  
 FUEL        paraffin                     1.0000000  -1860600.000    298.150
 OXIDANT     N2O                          1.0000000         0.000      0.000

 O/F=   18.30000  %FUEL=  5.181347  R,EQ.RATIO= 0.499373  PHI,EQ.RATIO= 0.499373

                 CHAMBER   THROAT     EXIT
 Pinf/P            1.0000   1.8105   26.854
 P, BAR            72.954   40.296   2.7167
 T, K             2023.32  1789.58   994.15
 RHO, KG/CU M    1.2783 1 7.9826 0 9.6879-1
 H, KJ/KG         -96.234  -415.09 -1449.24
 U, KJ/KG         -666.96  -919.88 -1729.67
 G, KJ/KG        -16309.7 -14755.6 -9415.71
 S, KJ/(KG)(K)     8.0133   8.0133   8.0133

 M, (1/n)          29.476   29.476   29.476
 Cp, KJ/(KG)(K)    1.3743   1.3533   1.2287
 GAMMAs            1.2583   1.2633   1.2980
 SON VEL,M/SEC      847.4    798.6    603.3
 MACH NUMBER        0.000    1.000    2.727

 PERFORMANCE PARAMETERS

 Ae/At                      1.0000   4.0000
 CSTAR, M/SEC               1144.4   1144.4
 CF                         0.6978   1.4374
 Ivac, M/SEC                1430.7   1815.5
 Isp, M/SEC                  798.6   1645.0

 MASS FRACTIONS

 *CO             0.00005   *CO2            0.16609   HO2             0.00001
 H2O             0.05752   *NO             0.00640   NO2             0.00012
 *N2             0.60048   *O              0.00002   *OH             0.00046
 *O2             0.16885

  * THERMODYNAMIC PROPERTIES FITTED TO 20000.K

 NOTE. WEIGHT FRACTION OF FUEL IN TOTAL FUELS AND OF OXIDANT IN TOTAL OXIDANTS

           THEORETICAL ROCKET PERFORMANCE ASSUMING FROZEN COMPOSITION

 Pin =   720.1 PSIA
 CASE = _______________

             REACTANT                    WT FRACTION      ENERGY      TEMP
                                          (SEE NOTE)     KJ/KG-MOL      K  
 FUEL        paraffin                     1.0000000  -1860600.000    298.150
 OXIDANT     N2O                          1.0000000         0.000      0.000

 O/F=   18.50000  %FUEL=  5.128205  R,EQ.RATIO= 0.493974  PHI,EQ.RATIO= 0.493974

                 CHAMBER   THROAT     EXIT
 Pinf/P            1.0000   1.8109   26.896
 P, BAR            49.649   27.417   1.8459
 T, K             2008.71  1776.16   985.07
 RHO, KG/CU M    8.7620 0 5.4721 0 6.6429-1
 H, KJ/KG         -95.247  -411.89 -1438.16
 U, KJ/KG         -661.89  -912.94 -1716.05
 G, KJ/KG        -16386.0 -14816.7 -9427.17
 S, KJ/(KG)(K)     8.1101   8.1101   8.1101

 M, (1/n)          29.474   29.474   29.474
 Cp, KJ/(KG)(K)    1.3718   1.3507   1.2255
 GAMMAs            1.2589   1.2640   1.2990
 SON VEL,M/SEC      844.6    795.8    600.8
 MACH NUMBER        0.000    1.000    2.728

 PERFORMANCE PARAMETERS

 Ae/At                      1.0000   4.0000
 CSTAR, M/SEC               1140.1   1140.1
 CF                         0.6980   1.4374
 Ivac, M/SEC                1425.4   1808.4
 Isp, M/SEC                  795.8   1638.9

 MASS FRACTIONS

 *CO             0.00005   *CO2            0.16438   HO2             0.00001
 H2O             0.05692   *NO             0.00619   NO2             0.00010
 *N2             0.60092   *O              0.00002   *OH             0.00047
 *O2             0.17093

  * THERMODYNAMIC PROPERTIES FITTED TO 20000.K

 NOTE. WEIGHT FRACTION OF FUEL IN TOTAL FUELS AND OF OXIDANT IN TOTAL OXIDANTS

           THEORETICAL ROCKET PERFORMANCE ASSUMING FROZEN COMPOSITION

 Pin =   734.8 PSIA
 CASE = _______________

             REACTANT                    WT FRACTION      ENERGY      TEMP
                                          (SEE NOTE)     KJ/KG-MOL      K  
 FUEL        paraffin                     1.0000000  -1860600.000    298.150
 OXIDANT     N2O                          1.0000000         0.000      0.000

 O/F=   18.50000  %FUEL=  5.128205  R,EQ.RATIO= 0.493974  PHI,EQ.RATIO= 0.493974

                 CHAMBER   THROAT     EXIT
 Pinf/P            1.0000   1.8109   26.896
 P, BAR            50.663   27.977   1.8836
 T, K             2008.73  1776.18   985.09
 RHO, KG/CU M    8.9408 0 5.5837 0 6.7784-1
 H, KJ/KG         -95.247  -411.90 -1438.18
 U, KJ/KG         -661.89  -912.94 -1716.06
 G, KJ/KG        -16374.7 -14806.7 -9421.68
 S, KJ/(KG)(K)     8.1044   8.1044   8.1044

 M, (1/n)          29.474   29.474   29.474
 Cp, KJ/(KG)(K)    1.3718   1.3507   1.2255
 GAMMAs            1.2589   1.2640   1.2990
 SON VEL,M/SEC      844.6    795.8    600.8
 MACH NUMBER        0.000    1.000    2.728

 PERFORMANCE PARAMETERS

 Ae/At                      1.0000   4.0000
 CSTAR, M/SEC               1140.1   1140.1
 CF                         0.6980   1.4374
 Ivac, M/SEC                1425.4   1808.4
 Isp, M/SEC                  795.8   1638.9

 MASS FRACTIONS

 *CO             0.00005   *CO2            0.16438   HO2             0.00001
 H2O             0.05692   *NO             0.00619   NO2             0.00010
 *N2             0.60092   *O              0.00002   *OH             0.00047
 *O2             0.17093

  * THERMODYNAMIC PROPERTIES FITTED TO 20000.K

 NOTE. WEIGHT FRACTION OF FUEL IN TOTAL FUELS AND OF OXIDANT IN TOTAL OXIDANTS

           THEORETICAL ROCKET PERFORMANCE ASSUMING FROZEN COMPOSITION

 Pin =   749.5 PSIA
 CASE = _______________

             REACTANT                    WT FRACTION      ENERGY      TEMP
                                          (SEE NOTE)     KJ/KG-MOL      K  
 FUEL        paraffin                     1.0000000  -1860600.000    298.150
 OXIDANT     N2O                          1.0000000         0.000      0.000

 O/F=   18.50000  %FUEL=  5.128205  R,EQ.RATIO= 0.493974  PHI,EQ.RATIO= 0.493974

                 CHAMBER   THROAT     EXIT
 Pinf/P            1.0000   1.8109   26.896
 P, BAR            51.676   28.537   1.9213
 T, K             2008.75  1776.20   985.10
 RHO, KG/CU M    9.1195 0 5.6954 0 6.9139-1
 H, KJ/KG         -95.247  -411.90 -1438.19
 U, KJ/KG         -661.90  -912.95 -1716.08
 G, KJ/KG        -16363.7 -14796.9 -9416.30
 S, KJ/(KG)(K)     8.0988   8.0988   8.0988

 M, (1/n)          29.475   29.475   29.475
 Cp, KJ/(KG)(K)    1.3718   1.3507   1.2255
 GAMMAs            1.2589   1.2640   1.2990
 SON VEL,M/SEC      844.6    795.8    600.8
 MACH NUMBER        0.000    1.000    2.728

 PERFORMANCE PARAMETERS

 Ae/At                      1.0000   4.0000
 CSTAR, M/SEC               1140.1   1140.1
 CF                         0.6980   1.4374
 Ivac, M/SEC                1425.4   1808.4
 Isp, M/SEC                  795.8   1638.9

 MASS FRACTIONS

 *CO             0.00005   *CO2            0.16438   HO2             0.00001
 H2O             0.05692   *NO             0.00619   NO2             0.00010
 *N2             0.60092   *O              0.00002   *OH             0.00047
 *O2             0.17093

  * THERMODYNAMIC PROPERTIES FITTED TO 20000.K

 NOTE. WEIGHT FRACTION OF FUEL IN TOTAL FUELS AND OF OXIDANT IN TOTAL OXIDANTS

           THEORETICAL ROCKET PERFORMANCE ASSUMING FROZEN COMPOSITION

 Pin =   764.2 PSIA
 CASE = _______________

             REACTANT                    WT FRACTION      ENERGY      TEMP
                                          (SEE NOTE)     KJ/KG-MOL      K  
 FUEL        paraffin                     1.0000000  -1860600.000    298.150
 OXIDANT     N2O                          1.0000000         0.000      0.000

 O/F=   18.50000  %FUEL=  5.128205  R,EQ.RATIO= 0.493974  PHI,EQ.RATIO= 0.493974

                 CHAMBER   THROAT     EXIT
 Pinf/P            1.0000   1.8109   26.896
 P, BAR            52.689   29.096   1.9590
 T, K             2008.77  1776.22   985.11
 RHO, KG/CU M    9.2982 0 5.8070 0 7.0494-1
 H, KJ/KG         -95.247  -411.90 -1438.20
 U, KJ/KG         -661.90  -912.96 -1716.09
 G, KJ/KG        -16352.8 -14787.4 -9411.02
 S, KJ/(KG)(K)     8.0933   8.0933   8.0933

 M, (1/n)          29.475   29.475   29.475
 Cp, KJ/(KG)(K)    1.3718   1.3507   1.2255
 GAMMAs            1.2589   1.2640   1.2990
 SON VEL,M/SEC      844.6    795.8    600.8
 MACH NUMBER        0.000    1.000    2.728

 PERFORMANCE PARAMETERS

 Ae/At                      1.0000   4.0000
 CSTAR, M/SEC               1140.1   1140.1
 CF                         0.6980   1.4374
 Ivac, M/SEC                1425.4   1808.4
 Isp, M/SEC                  795.8   1638.9

 MASS FRACTIONS

 *CO             0.00005   *CO2            0.16438   HO2             0.00001
 H2O             0.05692   *NO             0.00620   NO2             0.00010
 *N2             0.60092   *O              0.00002   *OH             0.00046
 *O2             0.17093

  * THERMODYNAMIC PROPERTIES FITTED TO 20000.K

 NOTE. WEIGHT FRACTION OF FUEL IN TOTAL FUELS AND OF OXIDANT IN TOTAL OXIDANTS

           THEORETICAL ROCKET PERFORMANCE ASSUMING FROZEN COMPOSITION

 Pin =   778.9 PSIA
 CASE = _______________

             REACTANT                    WT FRACTION      ENERGY      TEMP
                                          (SEE NOTE)     KJ/KG-MOL      K  
 FUEL        paraffin                     1.0000000  -1860600.000    298.150
 OXIDANT     N2O                          1.0000000         0.000      0.000

 O/F=   18.50000  %FUEL=  5.128205  R,EQ.RATIO= 0.493974  PHI,EQ.RATIO= 0.493974

                 CHAMBER   THROAT     EXIT
 Pinf/P            1.0000   1.8109   26.896
 P, BAR            53.702   29.656   1.9966
 T, K             2008.79  1776.24   985.13
 RHO, KG/CU M    9.4770 0 5.9186 0 7.1849-1
 H, KJ/KG         -95.247  -411.90 -1438.21
 U, KJ/KG         -661.91  -912.96 -1716.11
 G, KJ/KG        -16342.2 -14778.0 -9405.84
 S, KJ/(KG)(K)     8.0879   8.0879   8.0879

 M, (1/n)          29.475   29.475   29.475
 Cp, KJ/(KG)(K)    1.3718   1.3507   1.2256
 GAMMAs            1.2589   1.2640   1.2990
 SON VEL,M/SEC      844.6    795.8    600.8
 MACH NUMBER        0.000    1.000    2.728

 PERFORMANCE PARAMETERS

 Ae/At                      1.0000   4.0000
 CSTAR, M/SEC               1140.2   1140.2
 CF                         0.6980   1.4374
 Ivac, M/SEC                1425.4   1808.4
 Isp, M/SEC                  795.8   1638.9

 MASS FRACTIONS

 *CO             0.00005   *CO2            0.16438   HO2             0.00001
 H2O             0.05692   *NO             0.00620   NO2             0.00010
 *N2             0.60092   *O              0.00002   *OH             0.00046
 *O2             0.17093

  * THERMODYNAMIC PROPERTIES FITTED TO 20000.K

 NOTE. WEIGHT FRACTION OF FUEL IN TOTAL FUELS AND OF OXIDANT IN TOTAL OXIDANTS

           THEORETICAL ROCKET PERFORMANCE ASSUMING FROZEN COMPOSITION

 Pin =   793.6 PSIA
 CASE = _______________

             REACTANT                    WT FRACTION      ENERGY      TEMP
                                          (SEE NOTE)     KJ/KG-MOL      K  
 FUEL        paraffin                     1.0000000  -1860600.000    298.150
 OXIDANT     N2O                          1.0000000         0.000      0.000

 O/F=   18.50000  %FUEL=  5.128205  R,EQ.RATIO= 0.493974  PHI,EQ.RATIO= 0.493974

                 CHAMBER   THROAT     EXIT
 Pinf/P            1.0000   1.8109   26.896
 P, BAR            54.715   30.215   2.0343
 T, K             2008.81  1776.25   985.14
 RHO, KG/CU M    9.6557 0 6.0302 0 7.3204-1
 H, KJ/KG         -95.247  -411.91 -1438.22
 U, KJ/KG         -661.91  -912.97 -1716.12
 G, KJ/KG        -16331.8 -14768.8 -9400.76
 S, KJ/(KG)(K)     8.0827   8.0827   8.0827

 M, (1/n)          29.475   29.475   29.475
 Cp, KJ/(KG)(K)    1.3718   1.3507   1.2256
 GAMMAs            1.2589   1.2640   1.2990
 SON VEL,M/SEC      844.6    795.8    600.8
 MACH NUMBER        0.000    1.000    2.728

 PERFORMANCE PARAMETERS

 Ae/At                     1.00000   4.0000
 CSTAR, M/SEC               1140.2   1140.2
 CF                         0.6980   1.4374
 Ivac, M/SEC                1425.4   1808.5
 Isp, M/SEC                  795.8   1638.9

 MASS FRACTIONS

 *CO             0.00005   *CO2            0.16438   HO2             0.00001
 H2O             0.05693   *NO             0.00620   NO2             0.00010
 *N2             0.60092   *O              0.00002   *OH             0.00046
 *O2             0.17093

  * THERMODYNAMIC PROPERTIES FITTED TO 20000.K

 NOTE. WEIGHT FRACTION OF FUEL IN TOTAL FUELS AND OF OXIDANT IN TOTAL OXIDANTS

           THEORETICAL ROCKET PERFORMANCE ASSUMING FROZEN COMPOSITION

 Pin =   808.3 PSIA
 CASE = _______________

             REACTANT                    WT FRACTION      ENERGY      TEMP
                                          (SEE NOTE)     KJ/KG-MOL      K  
 FUEL        paraffin                     1.0000000  -1860600.000    298.150
 OXIDANT     N2O                          1.0000000         0.000      0.000

 O/F=   18.50000  %FUEL=  5.128205  R,EQ.RATIO= 0.493974  PHI,EQ.RATIO= 0.493974

                 CHAMBER   THROAT     EXIT
 Pinf/P            1.0000   1.8109   26.896
 P, BAR            55.729   30.775   2.0720
 T, K             2008.83  1776.27   985.15
 RHO, KG/CU M    9.8344 0 6.1418 0 7.4559-1
 H, KJ/KG         -95.247  -411.91 -1438.24
 U, KJ/KG         -661.92  -912.98 -1716.14
 G, KJ/KG        -16321.5 -14759.7 -9395.77
 S, KJ/(KG)(K)     8.0775   8.0775   8.0775

 M, (1/n)          29.475   29.475   29.475
 Cp, KJ/(KG)(K)    1.3718   1.3507   1.2256
 GAMMAs            1.2589   1.2640   1.2990
 SON VEL,M/SEC      844.6    795.8    600.8
 MACH NUMBER        0.000    1.000    2.728

 PERFORMANCE PARAMETERS

 Ae/At                      1.0000   4.0000
 CSTAR, M/SEC               1140.2   1140.2
 CF                         0.6980   1.4374
 Ivac, M/SEC                1425.4   1808.5
 Isp, M/SEC                  795.8   1638.9

 MASS FRACTIONS

 *CO             0.00005   *CO2            0.16438   HO2             0.00001
 H2O             0.05693   *NO             0.00620   NO2             0.00011
 *N2             0.60092   *O              0.00002   *OH             0.00046
 *O2             0.17093

  * THERMODYNAMIC PROPERTIES FITTED TO 20000.K

 NOTE. WEIGHT FRACTION OF FUEL IN TOTAL FUELS AND OF OXIDANT IN TOTAL OXIDANTS

           THEORETICAL ROCKET PERFORMANCE ASSUMING FROZEN COMPOSITION

 Pin =   823.0 PSIA
 CASE = _______________

             REACTANT                    WT FRACTION      ENERGY      TEMP
                                          (SEE NOTE)     KJ/KG-MOL      K  
 FUEL        paraffin                     1.0000000  -1860600.000    298.150
 OXIDANT     N2O                          1.0000000         0.000      0.000

 O/F=   18.50000  %FUEL=  5.128205  R,EQ.RATIO= 0.493974  PHI,EQ.RATIO= 0.493974

                 CHAMBER   THROAT     EXIT
 Pinf/P            1.0000   1.8109   26.896
 P, BAR            56.742   31.334   2.1097
 T, K             2008.85  1776.29   985.16
 RHO, KG/CU M    1.0013 1 6.2535 0 7.5914-1
 H, KJ/KG         -95.247  -411.91 -1438.25
 U, KJ/KG         -661.92  -912.98 -1716.15
 G, KJ/KG        -16311.5 -14750.8 -9390.87
 S, KJ/(KG)(K)     8.0724   8.0724   8.0724

 M, (1/n)          29.475   29.475   29.475
 Cp, KJ/(KG)(K)    1.3718   1.3507   1.2256
 GAMMAs            1.2589   1.2640   1.2990
 SON VEL,M/SEC      844.6    795.8    600.8
 MACH NUMBER        0.000    1.000    2.728

 PERFORMANCE PARAMETERS

 Ae/At                     1.00000   4.0000
 CSTAR, M/SEC               1140.2   1140.2
 CF                         0.6980   1.4374
 Ivac, M/SEC                1425.4   1808.5
 Isp, M/SEC                  795.8   1638.9

 MASS FRACTIONS

 *CO             0.00005   *CO2            0.16438   HO2             0.00001
 H2O             0.05693   *NO             0.00620   NO2             0.00011
 *N2             0.60091   *O              0.00002   *OH             0.00046
 *O2             0.17093

  * THERMODYNAMIC PROPERTIES FITTED TO 20000.K

 NOTE. WEIGHT FRACTION OF FUEL IN TOTAL FUELS AND OF OXIDANT IN TOTAL OXIDANTS

           THEORETICAL ROCKET PERFORMANCE ASSUMING FROZEN COMPOSITION

 Pin =   837.7 PSIA
 CASE = _______________

             REACTANT                    WT FRACTION      ENERGY      TEMP
                                          (SEE NOTE)     KJ/KG-MOL      K  
 FUEL        paraffin                     1.0000000  -1860600.000    298.150
 OXIDANT     N2O                          1.0000000         0.000      0.000

 O/F=   18.50000  %FUEL=  5.128205  R,EQ.RATIO= 0.493974  PHI,EQ.RATIO= 0.493974

                 CHAMBER   THROAT     EXIT
 Pinf/P            1.0000   1.8109   26.896
 P, BAR            57.755   31.894   2.1474
 T, K             2008.87  1776.31   985.17
 RHO, KG/CU M    1.0192 1 6.3651 0 7.7269-1
 H, KJ/KG         -95.247  -411.91 -1438.26
 U, KJ/KG         -661.92  -912.99 -1716.16
 G, KJ/KG        -16301.6 -14742.1 -9386.05
 S, KJ/(KG)(K)     8.0674   8.0674   8.0674

 M, (1/n)          29.475   29.475   29.475
 Cp, KJ/(KG)(K)    1.3718   1.3507   1.2256
 GAMMAs            1.2589   1.2640   1.2990
 SON VEL,M/SEC      844.6    795.8    600.8
 MACH NUMBER        0.000    1.000    2.728

 PERFORMANCE PARAMETERS

 Ae/At                      1.0000   4.0000
 CSTAR, M/SEC               1140.2   1140.2
 CF                         0.6980   1.4374
 Ivac, M/SEC                1425.5   1808.5
 Isp, M/SEC                  795.8   1638.9

 MASS FRACTIONS

 *CO             0.00005   *CO2            0.16439   HO2             0.00001
 H2O             0.05693   *NO             0.00620   NO2             0.00011
 *N2             0.60091   *O              0.00002   *OH             0.00045
 *O2             0.17093

  * THERMODYNAMIC PROPERTIES FITTED TO 20000.K

 NOTE. WEIGHT FRACTION OF FUEL IN TOTAL FUELS AND OF OXIDANT IN TOTAL OXIDANTS

           THEORETICAL ROCKET PERFORMANCE ASSUMING FROZEN COMPOSITION

 Pin =   852.4 PSIA
 CASE = _______________

             REACTANT                    WT FRACTION      ENERGY      TEMP
                                          (SEE NOTE)     KJ/KG-MOL      K  
 FUEL        paraffin                     1.0000000  -1860600.000    298.150
 OXIDANT     N2O                          1.0000000         0.000      0.000

 O/F=   18.50000  %FUEL=  5.128205  R,EQ.RATIO= 0.493974  PHI,EQ.RATIO= 0.493974

                 CHAMBER   THROAT     EXIT
 Pinf/P            1.0000   1.8109   26.896
 P, BAR            58.768   32.453   2.1850
 T, K             2008.88  1776.32   985.19
 RHO, KG/CU M    1.0371 1 6.4767 0 7.8624-1
 H, KJ/KG         -95.247  -411.92 -1438.27
 U, KJ/KG         -661.93  -912.99 -1716.18
 G, KJ/KG        -16291.9 -14733.5 -9381.32
 S, KJ/(KG)(K)     8.0625   8.0625   8.0625

 M, (1/n)          29.475   29.475   29.475
 Cp, KJ/(KG)(K)    1.3718   1.3507   1.2256
 GAMMAs            1.2589   1.2640   1.2990
 SON VEL,M/SEC      844.6    795.8    600.8
 MACH NUMBER        0.000    1.000    2.728

 PERFORMANCE PARAMETERS

 Ae/At                      1.0000   4.0000
 CSTAR, M/SEC               1140.2   1140.2
 CF                         0.6980   1.4374
 Ivac, M/SEC                1425.5   1808.5
 Isp, M/SEC                  795.8   1638.9

 MASS FRACTIONS

 *CO             0.00005   *CO2            0.16439   HO2             0.00001
 H2O             0.05693   *NO             0.00620   NO2             0.00011
 *N2             0.60091   *O              0.00002   *OH             0.00045
 *O2             0.17093

  * THERMODYNAMIC PROPERTIES FITTED TO 20000.K

 NOTE. WEIGHT FRACTION OF FUEL IN TOTAL FUELS AND OF OXIDANT IN TOTAL OXIDANTS

           THEORETICAL ROCKET PERFORMANCE ASSUMING FROZEN COMPOSITION

 Pin =   867.1 PSIA
 CASE = _______________

             REACTANT                    WT FRACTION      ENERGY      TEMP
                                          (SEE NOTE)     KJ/KG-MOL      K  
 FUEL        paraffin                     1.0000000  -1860600.000    298.150
 OXIDANT     N2O                          1.0000000         0.000      0.000

 O/F=   18.50000  %FUEL=  5.128205  R,EQ.RATIO= 0.493974  PHI,EQ.RATIO= 0.493974

                 CHAMBER   THROAT     EXIT
 Pinf/P            1.0000   1.8109   26.896
 P, BAR            59.782   33.013   2.2227
 T, K             2008.90  1776.34   985.20
 RHO, KG/CU M    1.0549 1 6.5883 0 7.9979-1
 H, KJ/KG         -95.247  -411.92 -1438.28
 U, KJ/KG         -661.93  -913.00 -1716.19
 G, KJ/KG        -16282.3 -14725.1 -9376.67
 S, KJ/(KG)(K)     8.0577   8.0577   8.0577

 M, (1/n)          29.475   29.475   29.475
 Cp, KJ/(KG)(K)    1.3718   1.3507   1.2256
 GAMMAs            1.2589   1.2640   1.2990
 SON VEL,M/SEC      844.6    795.8    600.8
 MACH NUMBER        0.000    1.000    2.728

 PERFORMANCE PARAMETERS

 Ae/At                      1.0000   4.0000
 CSTAR, M/SEC               1140.2   1140.2
 CF                         0.6980   1.4374
 Ivac, M/SEC                1425.5   1808.5
 Isp, M/SEC                  795.8   1638.9

 MASS FRACTIONS

 *CO             0.00005   *CO2            0.16439   HO2             0.00001
 H2O             0.05693   *NO             0.00620   NO2             0.00011
 *N2             0.60091   *O              0.00002   *OH             0.00045
 *O2             0.17093

  * THERMODYNAMIC PROPERTIES FITTED TO 20000.K

 NOTE. WEIGHT FRACTION OF FUEL IN TOTAL FUELS AND OF OXIDANT IN TOTAL OXIDANTS

           THEORETICAL ROCKET PERFORMANCE ASSUMING FROZEN COMPOSITION

 Pin =   881.8 PSIA
 CASE = _______________

             REACTANT                    WT FRACTION      ENERGY      TEMP
                                          (SEE NOTE)     KJ/KG-MOL      K  
 FUEL        paraffin                     1.0000000  -1860600.000    298.150
 OXIDANT     N2O                          1.0000000         0.000      0.000

 O/F=   18.50000  %FUEL=  5.128205  R,EQ.RATIO= 0.493974  PHI,EQ.RATIO= 0.493974

                 CHAMBER   THROAT     EXIT
 Pinf/P            1.0000   1.8109   26.896
 P, BAR            60.795   33.573   2.2604
 T, K             2008.92  1776.35   985.21
 RHO, KG/CU M    1.0728 1 6.7000 0 8.1334-1
 H, KJ/KG         -95.247  -411.92 -1438.29
 U, KJ/KG         -661.94  -913.01 -1716.20
 G, KJ/KG        -16272.9 -14716.8 -9372.10
 S, KJ/(KG)(K)     8.0529   8.0529   8.0529

 M, (1/n)          29.475   29.475   29.475
 Cp, KJ/(KG)(K)    1.3718   1.3507   1.2256
 GAMMAs            1.2589   1.2640   1.2990
 SON VEL,M/SEC      844.6    795.8    600.8
 MACH NUMBER        0.000    1.000    2.728

 PERFORMANCE PARAMETERS

 Ae/At                      1.0000   4.0000
 CSTAR, M/SEC               1140.2   1140.2
 CF                         0.6980   1.4374
 Ivac, M/SEC                1425.5   1808.5
 Isp, M/SEC                  795.8   1638.9

 MASS FRACTIONS

 *CO             0.00005   *CO2            0.16439   HO2             0.00001
 H2O             0.05693   *NO             0.00620   NO2             0.00011
 *N2             0.60091   *O              0.00002   *OH             0.00045
 *O2             0.17093

  * THERMODYNAMIC PROPERTIES FITTED TO 20000.K

 NOTE. WEIGHT FRACTION OF FUEL IN TOTAL FUELS AND OF OXIDANT IN TOTAL OXIDANTS

           THEORETICAL ROCKET PERFORMANCE ASSUMING FROZEN COMPOSITION

 Pin =   896.5 PSIA
 CASE = _______________

             REACTANT                    WT FRACTION      ENERGY      TEMP
                                          (SEE NOTE)     KJ/KG-MOL      K  
 FUEL        paraffin                     1.0000000  -1860600.000    298.150
 OXIDANT     N2O                          1.0000000         0.000      0.000

 O/F=   18.50000  %FUEL=  5.128205  R,EQ.RATIO= 0.493974  PHI,EQ.RATIO= 0.493974

                 CHAMBER   THROAT     EXIT
 Pinf/P            1.0000   1.8109   26.896
 P, BAR            61.808   34.132   2.2981
 T, K             2008.93  1776.37   985.22
 RHO, KG/CU M    1.0907 1 6.8116 0 8.2689-1
 H, KJ/KG         -95.247  -411.92 -1438.30
 U, KJ/KG         -661.94  -913.01 -1716.21
 G, KJ/KG        -16263.7 -14708.6 -9367.60
 S, KJ/(KG)(K)     8.0483   8.0483   8.0483

 M, (1/n)          29.475   29.475   29.475
 Cp, KJ/(KG)(K)    1.3718   1.3507   1.2256
 GAMMAs            1.2589   1.2640   1.2990
 SON VEL,M/SEC      844.6    795.8    600.8
 MACH NUMBER        0.000    1.000    2.728

 PERFORMANCE PARAMETERS

 Ae/At                      1.0000   4.0000
 CSTAR, M/SEC               1140.2   1140.2
 CF                         0.6980   1.4374
 Ivac, M/SEC                1425.5   1808.5
 Isp, M/SEC                  795.8   1638.9

 MASS FRACTIONS

 *CO             0.00005   *CO2            0.16439   HO2             0.00001
 H2O             0.05693   *NO             0.00620   NO2             0.00011
 *N2             0.60091   *O              0.00002   *OH             0.00045
 *O2             0.17093

  * THERMODYNAMIC PROPERTIES FITTED TO 20000.K

 NOTE. WEIGHT FRACTION OF FUEL IN TOTAL FUELS AND OF OXIDANT IN TOTAL OXIDANTS

           THEORETICAL ROCKET PERFORMANCE ASSUMING FROZEN COMPOSITION

 Pin =   911.2 PSIA
 CASE = _______________

             REACTANT                    WT FRACTION      ENERGY      TEMP
                                          (SEE NOTE)     KJ/KG-MOL      K  
 FUEL        paraffin                     1.0000000  -1860600.000    298.150
 OXIDANT     N2O                          1.0000000         0.000      0.000

 O/F=   18.50000  %FUEL=  5.128205  R,EQ.RATIO= 0.493974  PHI,EQ.RATIO= 0.493974

                 CHAMBER   THROAT     EXIT
 Pinf/P            1.0000   1.8109   26.896
 P, BAR            62.822   34.692   2.3358
 T, K             2008.95  1776.38   985.23
 RHO, KG/CU M    1.1086 1 6.9232 0 8.4044-1
 H, KJ/KG         -95.247  -411.92 -1438.30
 U, KJ/KG         -661.94  -913.02 -1716.22
 G, KJ/KG        -16254.6 -14700.6 -9363.17
 S, KJ/(KG)(K)     8.0437   8.0437   8.0437

 M, (1/n)          29.475   29.475   29.475
 Cp, KJ/(KG)(K)    1.3718   1.3507   1.2256
 GAMMAs            1.2589   1.2640   1.2990
 SON VEL,M/SEC      844.6    795.8    600.8
 MACH NUMBER        0.000    1.000    2.728

 PERFORMANCE PARAMETERS

 Ae/At                      1.0000   4.0000
 CSTAR, M/SEC               1140.2   1140.2
 CF                         0.6980   1.4374
 Ivac, M/SEC                1425.5   1808.5
 Isp, M/SEC                  795.8   1638.9

 MASS FRACTIONS

 *CO             0.00005   *CO2            0.16439   HO2             0.00001
 H2O             0.05693   *NO             0.00620   NO2             0.00011
 *N2             0.60091   *O              0.00002   *OH             0.00045
 *O2             0.17093

  * THERMODYNAMIC PROPERTIES FITTED TO 20000.K

 NOTE. WEIGHT FRACTION OF FUEL IN TOTAL FUELS AND OF OXIDANT IN TOTAL OXIDANTS

           THEORETICAL ROCKET PERFORMANCE ASSUMING FROZEN COMPOSITION

 Pin =   925.8 PSIA
 CASE = _______________

             REACTANT                    WT FRACTION      ENERGY      TEMP
                                          (SEE NOTE)     KJ/KG-MOL      K  
 FUEL        paraffin                     1.0000000  -1860600.000    298.150
 OXIDANT     N2O                          1.0000000         0.000      0.000

 O/F=   18.50000  %FUEL=  5.128205  R,EQ.RATIO= 0.493974  PHI,EQ.RATIO= 0.493974

                 CHAMBER   THROAT     EXIT
 Pinf/P            1.0000   1.8109   26.896
 P, BAR            63.835   35.251   2.3734
 T, K             2008.97  1776.40   985.24
 RHO, KG/CU M    1.1264 1 7.0348 0 8.5399-1
 H, KJ/KG         -95.247  -411.93 -1438.31
 U, KJ/KG         -661.95  -913.02 -1716.24
 G, KJ/KG        -16245.7 -14692.7 -9358.82
 S, KJ/(KG)(K)     8.0392   8.0392   8.0392

 M, (1/n)          29.475   29.475   29.475
 Cp, KJ/(KG)(K)    1.3718   1.3507   1.2256
 GAMMAs            1.2589   1.2640   1.2990
 SON VEL,M/SEC      844.6    795.8    600.8
 MACH NUMBER        0.000    1.000    2.728

 PERFORMANCE PARAMETERS

 Ae/At                      1.0000   4.0000
 CSTAR, M/SEC               1140.2   1140.2
 CF                         0.6980   1.4374
 Ivac, M/SEC                1425.5   1808.5
 Isp, M/SEC                  795.8   1638.9

 MASS FRACTIONS

 *CO             0.00005   *CO2            0.16439   HO2             0.00001
 H2O             0.05693   *NO             0.00620   NO2             0.00011
 *N2             0.60091   *O              0.00002   *OH             0.00044
 *O2             0.17093

  * THERMODYNAMIC PROPERTIES FITTED TO 20000.K

 NOTE. WEIGHT FRACTION OF FUEL IN TOTAL FUELS AND OF OXIDANT IN TOTAL OXIDANTS

           THEORETICAL ROCKET PERFORMANCE ASSUMING FROZEN COMPOSITION

 Pin =   940.5 PSIA
 CASE = _______________

             REACTANT                    WT FRACTION      ENERGY      TEMP
                                          (SEE NOTE)     KJ/KG-MOL      K  
 FUEL        paraffin                     1.0000000  -1860600.000    298.150
 OXIDANT     N2O                          1.0000000         0.000      0.000

 O/F=   18.50000  %FUEL=  5.128205  R,EQ.RATIO= 0.493974  PHI,EQ.RATIO= 0.493974

                 CHAMBER   THROAT     EXIT
 Pinf/P            1.0000   1.8109   26.896
 P, BAR            64.848   35.811   2.4111
 T, K             2008.98  1776.41   985.25
 RHO, KG/CU M    1.1443 1 7.1464 0 8.6754-1
 H, KJ/KG         -95.247  -411.93 -1438.32
 U, KJ/KG         -661.95  -913.03 -1716.25
 G, KJ/KG        -16236.9 -14684.9 -9354.53
 S, KJ/(KG)(K)     8.0347   8.0347   8.0347

 M, (1/n)          29.475   29.475   29.475
 Cp, KJ/(KG)(K)    1.3718   1.3507   1.2256
 GAMMAs            1.2589   1.2640   1.2990
 SON VEL,M/SEC      844.6    795.8    600.8
 MACH NUMBER        0.000    1.000    2.728

 PERFORMANCE PARAMETERS

 Ae/At                      1.0000   4.0000
 CSTAR, M/SEC               1140.2   1140.2
 CF                         0.6980   1.4374
 Ivac, M/SEC                1425.5   1808.5
 Isp, M/SEC                  795.8   1638.9

 MASS FRACTIONS

 *CO             0.00005   *CO2            0.16439   HO2             0.00001
 H2O             0.05694   *NO             0.00620   NO2             0.00011
 *N2             0.60091   *O              0.00002   *OH             0.00044
 *O2             0.17093

  * THERMODYNAMIC PROPERTIES FITTED TO 20000.K

 NOTE. WEIGHT FRACTION OF FUEL IN TOTAL FUELS AND OF OXIDANT IN TOTAL OXIDANTS

           THEORETICAL ROCKET PERFORMANCE ASSUMING FROZEN COMPOSITION

 Pin =   955.2 PSIA
 CASE = _______________

             REACTANT                    WT FRACTION      ENERGY      TEMP
                                          (SEE NOTE)     KJ/KG-MOL      K  
 FUEL        paraffin                     1.0000000  -1860600.000    298.150
 OXIDANT     N2O                          1.0000000         0.000      0.000

 O/F=   18.50000  %FUEL=  5.128205  R,EQ.RATIO= 0.493974  PHI,EQ.RATIO= 0.493974

                 CHAMBER   THROAT     EXIT
 Pinf/P            1.0000   1.8109   26.895
 P, BAR            65.861   36.370   2.4488
 T, K             2009.00  1776.43   985.26
 RHO, KG/CU M    1.1622 1 7.2581 0 8.8109-1
 H, KJ/KG         -95.247  -411.93 -1438.33
 U, KJ/KG         -661.95  -913.03 -1716.26
 G, KJ/KG        -16228.2 -14677.3 -9350.31
 S, KJ/(KG)(K)     8.0304   8.0304   8.0304

 M, (1/n)          29.475   29.475   29.475
 Cp, KJ/(KG)(K)    1.3718   1.3507   1.2256
 GAMMAs            1.2589   1.2640   1.2990
 SON VEL,M/SEC      844.6    795.8    600.8
 MACH NUMBER        0.000    1.000    2.728

 PERFORMANCE PARAMETERS

 Ae/At                     1.00000   4.0000
 CSTAR, M/SEC               1140.2   1140.2
 CF                         0.6980   1.4374
 Ivac, M/SEC                1425.5   1808.5
 Isp, M/SEC                  795.8   1639.0

 MASS FRACTIONS

 *CO             0.00005   *CO2            0.16439   HO2             0.00001
 H2O             0.05694   *NO             0.00620   NO2             0.00011
 *N2             0.60091   *O              0.00002   *OH             0.00044
 *O2             0.17093

  * THERMODYNAMIC PROPERTIES FITTED TO 20000.K

 NOTE. WEIGHT FRACTION OF FUEL IN TOTAL FUELS AND OF OXIDANT IN TOTAL OXIDANTS

           THEORETICAL ROCKET PERFORMANCE ASSUMING FROZEN COMPOSITION

 Pin =   969.9 PSIA
 CASE = _______________

             REACTANT                    WT FRACTION      ENERGY      TEMP
                                          (SEE NOTE)     KJ/KG-MOL      K  
 FUEL        paraffin                     1.0000000  -1860600.000    298.150
 OXIDANT     N2O                          1.0000000         0.000      0.000

 O/F=   18.50000  %FUEL=  5.128205  R,EQ.RATIO= 0.493974  PHI,EQ.RATIO= 0.493974

                 CHAMBER   THROAT     EXIT
 Pinf/P            1.0000   1.8109   26.895
 P, BAR            66.874   36.930   2.4865
 T, K             2009.01  1776.44   985.27
 RHO, KG/CU M    1.1800 1 7.3697 0 8.9464-1
 H, KJ/KG         -95.247  -411.93 -1438.34
 U, KJ/KG         -661.96  -913.04 -1716.27
 G, KJ/KG        -16219.7 -14669.7 -9346.15
 S, KJ/(KG)(K)     8.0260   8.0260   8.0260

 M, (1/n)          29.475   29.475   29.475
 Cp, KJ/(KG)(K)    1.3718   1.3507   1.2256
 GAMMAs            1.2589   1.2640   1.2990
 SON VEL,M/SEC      844.6    795.9    600.9
 MACH NUMBER        0.000    1.000    2.728

 PERFORMANCE PARAMETERS

 Ae/At                      1.0000   4.0000
 CSTAR, M/SEC               1140.2   1140.2
 CF                         0.6980   1.4374
 Ivac, M/SEC                1425.5   1808.5
 Isp, M/SEC                  795.8   1639.0

 MASS FRACTIONS

 *CO             0.00005   *CO2            0.16439   HO2             0.00001
 H2O             0.05694   *NO             0.00620   NO2             0.00012
 *N2             0.60091   *O              0.00002   *OH             0.00044
 *O2             0.17093

  * THERMODYNAMIC PROPERTIES FITTED TO 20000.K

 NOTE. WEIGHT FRACTION OF FUEL IN TOTAL FUELS AND OF OXIDANT IN TOTAL OXIDANTS

           THEORETICAL ROCKET PERFORMANCE ASSUMING FROZEN COMPOSITION

 Pin =   984.6 PSIA
 CASE = _______________

             REACTANT                    WT FRACTION      ENERGY      TEMP
                                          (SEE NOTE)     KJ/KG-MOL      K  
 FUEL        paraffin                     1.0000000  -1860600.000    298.150
 OXIDANT     N2O                          1.0000000         0.000      0.000

 O/F=   18.50000  %FUEL=  5.128205  R,EQ.RATIO= 0.493974  PHI,EQ.RATIO= 0.493974

                 CHAMBER   THROAT     EXIT
 Pinf/P            1.0000   1.8108   26.895
 P, BAR            67.888   37.489   2.5241
 T, K             2009.03  1776.45   985.28
 RHO, KG/CU M    1.1979 1 7.4813 0 9.0819-1
 H, KJ/KG         -95.247  -411.93 -1438.35
 U, KJ/KG         -661.96  -913.04 -1716.28
 G, KJ/KG        -16211.3 -14662.3 -9342.05
 S, KJ/(KG)(K)     8.0218   8.0218   8.0218

 M, (1/n)          29.475   29.475   29.475
 Cp, KJ/(KG)(K)    1.3718   1.3507   1.2256
 GAMMAs            1.2589   1.2640   1.2990
 SON VEL,M/SEC      844.6    795.9    600.9
 MACH NUMBER        0.000    1.000    2.728

 PERFORMANCE PARAMETERS

 Ae/At                      1.0000   4.0000
 CSTAR, M/SEC               1140.2   1140.2
 CF                         0.6980   1.4374
 Ivac, M/SEC                1425.5   1808.5
 Isp, M/SEC                  795.8   1639.0

 MASS FRACTIONS

 *CO             0.00005   *CO2            0.16439   HO2             0.00001
 H2O             0.05694   *NO             0.00620   NO2             0.00012
 *N2             0.60091   *O              0.00002   *OH             0.00044
 *O2             0.17093

  * THERMODYNAMIC PROPERTIES FITTED TO 20000.K

 NOTE. WEIGHT FRACTION OF FUEL IN TOTAL FUELS AND OF OXIDANT IN TOTAL OXIDANTS

           THEORETICAL ROCKET PERFORMANCE ASSUMING FROZEN COMPOSITION

 Pin =   999.3 PSIA
 CASE = _______________

             REACTANT                    WT FRACTION      ENERGY      TEMP
                                          (SEE NOTE)     KJ/KG-MOL      K  
 FUEL        paraffin                     1.0000000  -1860600.000    298.150
 OXIDANT     N2O                          1.0000000         0.000      0.000

 O/F=   18.50000  %FUEL=  5.128205  R,EQ.RATIO= 0.493974  PHI,EQ.RATIO= 0.493974

                 CHAMBER   THROAT     EXIT
 Pinf/P            1.0000   1.8108   26.895
 P, BAR            68.901   38.049   2.5618
 T, K             2009.04  1776.47   985.29
 RHO, KG/CU M    1.2158 1 7.5929 0 9.2174-1
 H, KJ/KG         -95.247  -411.93 -1438.36
 U, KJ/KG         -661.96  -913.05 -1716.29
 G, KJ/KG        -16203.0 -14655.0 -9338.02
 S, KJ/(KG)(K)     8.0176   8.0176   8.0176

 M, (1/n)          29.475   29.475   29.475
 Cp, KJ/(KG)(K)    1.3718   1.3508   1.2256
 GAMMAs            1.2588   1.2640   1.2990
 SON VEL,M/SEC      844.6    795.9    600.9
 MACH NUMBER        0.000    1.000    2.728

 PERFORMANCE PARAMETERS

 Ae/At                      1.0000   4.0000
 CSTAR, M/SEC               1140.2   1140.2
 CF                         0.6980   1.4374
 Ivac, M/SEC                1425.5   1808.5
 Isp, M/SEC                  795.8   1639.0

 MASS FRACTIONS

 *CO             0.00005   *CO2            0.16439   HO2             0.00001
 H2O             0.05694   *NO             0.00620   NO2             0.00012
 *N2             0.60091   *O              0.00002   *OH             0.00044
 *O2             0.17093

  * THERMODYNAMIC PROPERTIES FITTED TO 20000.K

 NOTE. WEIGHT FRACTION OF FUEL IN TOTAL FUELS AND OF OXIDANT IN TOTAL OXIDANTS

           THEORETICAL ROCKET PERFORMANCE ASSUMING FROZEN COMPOSITION

 Pin =  1014.0 PSIA
 CASE = _______________

             REACTANT                    WT FRACTION      ENERGY      TEMP
                                          (SEE NOTE)     KJ/KG-MOL      K  
 FUEL        paraffin                     1.0000000  -1860600.000    298.150
 OXIDANT     N2O                          1.0000000         0.000      0.000

 O/F=   18.50000  %FUEL=  5.128205  R,EQ.RATIO= 0.493974  PHI,EQ.RATIO= 0.493974

                 CHAMBER   THROAT     EXIT
 Pinf/P            1.0000   1.8108   26.895
 P, BAR            69.914   38.609   2.5995
 T, K             2009.05  1776.48   985.30
 RHO, KG/CU M    1.2337 1 7.7045 0 9.3529-1
 H, KJ/KG         -95.247  -411.94 -1438.36
 U, KJ/KG         -661.97  -913.05 -1716.30
[...]
 Pinf/P            1.0000   1.8053   26.776
 P, BAR            62.822   34.799   2.3462
 T, K             1287.83  1144.16   638.19
 RHO, KG/CU M    1.2909 1 8.0488 0 9.7289-1
 H, KJ/KG         -619.11  -890.29 -1779.15
 U, KJ/KG        -1105.75 -1322.64 -2020.30
 G, KJ/KG        -12699.8 -11623.3 -7765.84
 S, KJ/(KG)(K)     9.3807   9.3807   9.3807

 M, (1/n)          22.003   22.003   22.003
 MW, MOL WT        18.027   18.027   18.027
 Cp, KJ/(KG)(K)    1.9111   1.8629   1.6338
 GAMMAs            1.2465   1.2545   1.3009
 SON VEL,M/SEC      778.8    736.5    560.1
 MACH NUMBER        0.000    1.000    2.719

 PERFORMANCE PARAMETERS

 Ae/At                      1.0000   4.0000
 CSTAR, M/SEC               1059.8   1059.8
 CF                         0.6949   1.4372
 Ivac, M/SEC                1323.5   1681.5
 Isp, M/SEC                  736.5   1523.2

 MASS FRACTIONS

 CH4             0.03652   *CO             0.30769   *CO2            0.04399
 C2H4            0.00001   C2H6            0.00001   HCN             0.00009
 HNCO            0.00001   *H2             0.02793   H2O             0.03896
 NH3             0.00062   *N2             0.42377   C(gr)           0.12039

  * THERMODYNAMIC PROPERTIES FITTED TO 20000.K

 NOTE. WEIGHT FRACTION OF FUEL IN TOTAL FUELS AND OF OXIDANT IN TOTAL OXIDANTS

           THEORETICAL ROCKET PERFORMANCE ASSUMING FROZEN COMPOSITION

 Pin =   925.8 PSIA
 CASE = _______________

             REACTANT                    WT FRACTION      ENERGY      TEMP
                                          (SEE NOTE)     KJ/KG-MOL      K  
 FUEL        paraffin                     1.0000000  -1860600.000    298.150
 OXIDANT     N2O                          1.0000000         0.000      0.000

 O/F=    2.00000  %FUEL= 33.333333  R,EQ.RATIO= 4.569263  PHI,EQ.RATIO= 4.569263

                 CHAMBER   THROAT     EXIT
 Pinf/P            1.0000   1.8052   26.765
 P, BAR            63.835   35.362   2.3850
 T, K             1288.93  1145.23   639.06
 RHO, KG/CU M    1.3112 1 8.1749 0 9.8805-1
 H, KJ/KG         -619.11  -890.39 -1779.76
 U, KJ/KG        -1105.95 -1322.96 -2021.14
 G, KJ/KG        -12702.3 -11626.5 -7770.69
 S, KJ/(KG)(K)     9.3746   9.3746   9.3746

 M, (1/n)          22.013   22.013   22.013
 MW, MOL WT        18.035   18.035   18.035
 Cp, KJ/(KG)(K)    1.9115   1.8633   1.6340
 GAMMAs            1.2463   1.2543   1.3007
 SON VEL,M/SEC      778.9    736.6    560.3
 MACH NUMBER        0.000    1.000    2.719

 PERFORMANCE PARAMETERS

 Ae/At                      1.0000   4.0000
 CSTAR, M/SEC               1060.1   1060.1
 CF                         0.6948   1.4372
 Ivac, M/SEC                1323.9   1682.0
 Isp, M/SEC                  736.6   1523.6

 MASS FRACTIONS

 CH4             0.03670   *CO             0.30744   *CO2            0.04406
 C2H4            0.00001   C2H6            0.00001   HCN             0.00009
 HNCO            0.00001   *H2             0.02787   H2O             0.03907
 NH3             0.00062   *N2             0.42376   C(gr)           0.12034

  * THERMODYNAMIC PROPERTIES FITTED TO 20000.K

 NOTE. WEIGHT FRACTION OF FUEL IN TOTAL FUELS AND OF OXIDANT IN TOTAL OXIDANTS

           THEORETICAL ROCKET PERFORMANCE ASSUMING FROZEN COMPOSITION

 Pin =   940.5 PSIA
 CASE = _______________

             REACTANT                    WT FRACTION      ENERGY      TEMP
                                          (SEE NOTE)     KJ/KG-MOL      K  
 FUEL        paraffin                     1.0000000  -1860600.000    298.150
 OXIDANT     N2O                          1.0000000         0.000      0.000

 O/F=    2.00000  %FUEL= 33.333333  R,EQ.RATIO= 4.569263  PHI,EQ.RATIO= 4.569263

                 CHAMBER   THROAT     EXIT
 Pinf/P            1.0000   1.8050   26.755
 P, BAR            64.848   35.926   2.4238
 T, K             1290.01  1146.29   639.91
 RHO, KG/CU M    1.3314 1 8.3010 0 1.0032 0
 H, KJ/KG         -619.11  -890.48 -1780.36
 U, KJ/KG        -1106.16 -1323.27 -2021.96
 G, KJ/KG        -12704.8 -11629.7 -7775.48
 S, KJ/(KG)(K)     9.3687   9.3687   9.3687

 M, (1/n)          22.022   22.022   22.022
 MW, MOL WT        18.042   18.042   18.042
 Cp, KJ/(KG)(K)    1.9118   1.8636   1.6342
 GAMMAs            1.2461   1.2541   1.3004
 SON VEL,M/SEC      779.0    736.7    560.5
 MACH NUMBER        0.000    1.000    2.719

 PERFORMANCE PARAMETERS

 Ae/At                      1.0000   4.0000
 CSTAR, M/SEC               1060.4   1060.4
 CF                         0.6948   1.4372
 Ivac, M/SEC                1324.2   1682.5
 Isp, M/SEC                  736.7   1524.0

 MASS FRACTIONS

 CH4             0.03689   *CO             0.30720   *CO2            0.04412
 C2H4            0.00001   C2H6            0.00001   HCN             0.00009
 HNCO            0.00001   *H2             0.02781   H2O             0.03917
 NH3             0.00063   *N2             0.42376   C(gr)           0.12029

  * THERMODYNAMIC PROPERTIES FITTED TO 20000.K

 NOTE. WEIGHT FRACTION OF FUEL IN TOTAL FUELS AND OF OXIDANT IN TOTAL OXIDANTS

           THEORETICAL ROCKET PERFORMANCE ASSUMING FROZEN COMPOSITION

 Pin =   955.2 PSIA
 CASE = _______________

             REACTANT                    WT FRACTION      ENERGY      TEMP
                                          (SEE NOTE)     KJ/KG-MOL      K  
 FUEL        paraffin                     1.0000000  -1860600.000    298.150
 OXIDANT     N2O                          1.0000000         0.000      0.000

 O/F=    2.00000  %FUEL= 33.333333  R,EQ.RATIO= 4.569263  PHI,EQ.RATIO= 4.569263

                 CHAMBER   THROAT     EXIT
 Pinf/P            1.0000   1.8049   26.744
 P, BAR            65.861   36.490   2.4626
 T, K             1291.07  1147.33   640.75
 RHO, KG/CU M    1.3517 1 8.4270 0 1.0184 0
 H, KJ/KG         -619.11  -890.58 -1780.95
 U, KJ/KG        -1106.36 -1323.58 -2022.78
 G, KJ/KG        -12707.2 -11632.9 -7780.21
 S, KJ/(KG)(K)     9.3628   9.3628   9.3628

 M, (1/n)          22.031   22.031   22.031
 MW, MOL WT        18.050   18.050   18.050
 Cp, KJ/(KG)(K)    1.9122   1.8640   1.6344
 GAMMAs            1.2459   1.2539   1.3002
 SON VEL,M/SEC      779.1    736.8    560.7
 MACH NUMBER        0.000    1.000    2.719

 PERFORMANCE PARAMETERS

 Ae/At                      1.0000   4.0000
 CSTAR, M/SEC               1060.7   1060.7
 CF                         0.6947   1.4372
 Ivac, M/SEC                1324.5   1683.0
 Isp, M/SEC                  736.8   1524.4

 MASS FRACTIONS

 CH4             0.03706   *CO             0.30696   *CO2            0.04419
 C2H4            0.00001   C2H6            0.00002   HCN             0.00009
 HNCO            0.00001   *H2             0.02776   H2O             0.03927
 NH3             0.00063   *N2             0.42375   C(gr)           0.12025

  * THERMODYNAMIC PROPERTIES FITTED TO 20000.K

 NOTE. WEIGHT FRACTION OF FUEL IN TOTAL FUELS AND OF OXIDANT IN TOTAL OXIDANTS

           THEORETICAL ROCKET PERFORMANCE ASSUMING FROZEN COMPOSITION

 Pin =   969.9 PSIA
 CASE = _______________

             REACTANT                    WT FRACTION      ENERGY      TEMP
                                          (SEE NOTE)     KJ/KG-MOL      K  
 FUEL        paraffin                     1.0000000  -1860600.000    298.150
 OXIDANT     N2O                          1.0000000         0.000      0.000

 O/F=    2.00000  %FUEL= 33.333333  R,EQ.RATIO= 4.569263  PHI,EQ.RATIO= 4.569263

                 CHAMBER   THROAT     EXIT
 Pinf/P            1.0000   1.8048   26.734
 P, BAR            66.874   37.054   2.5015
 T, K             1292.12  1148.36   641.58
 RHO, KG/CU M    1.3719 1 8.5530 0 1.0335 0
 H, KJ/KG         -619.11  -890.67 -1781.54
 U, KJ/KG        -1106.56 -1323.89 -2023.57
 G, KJ/KG        -12709.6 -11636.0 -7784.87
 S, KJ/(KG)(K)     9.3571   9.3571   9.3571

 M, (1/n)          22.040   22.040   22.040
 MW, MOL WT        18.057   18.057   18.057
 Cp, KJ/(KG)(K)    1.9125   1.8643   1.6346
 GAMMAs            1.2457   1.2537   1.3000
 SON VEL,M/SEC      779.3    737.0    560.9
 MACH NUMBER        0.000    1.000    2.718

 PERFORMANCE PARAMETERS

 Ae/At                      1.0000   4.0000
 CSTAR, M/SEC               1060.9   1060.9
 CF                         0.6946   1.4372
 Ivac, M/SEC                1324.8   1683.5
 Isp, M/SEC                  737.0   1524.7

 MASS FRACTIONS

 CH4             0.03724   *CO             0.30672   *CO2            0.04425
 C2H4            0.00001   C2H6            0.00002   HCN             0.00009
 HNCO            0.00001   *H2             0.02770   H2O             0.03937
 NH3             0.00064   *N2             0.42375   C(gr)           0.12020

  * THERMODYNAMIC PROPERTIES FITTED TO 20000.K

 NOTE. WEIGHT FRACTION OF FUEL IN TOTAL FUELS AND OF OXIDANT IN TOTAL OXIDANTS

           THEORETICAL ROCKET PERFORMANCE ASSUMING FROZEN COMPOSITION

 Pin =   984.6 PSIA
 CASE = _______________

             REACTANT                    WT FRACTION      ENERGY      TEMP
                                          (SEE NOTE)     KJ/KG-MOL      K  
 FUEL        paraffin                     1.0000000  -1860600.000    298.150
 OXIDANT     N2O                          1.0000000         0.000      0.000

 O/F=    2.00000  %FUEL= 33.333333  R,EQ.RATIO= 4.569263  PHI,EQ.RATIO= 4.569263

                 CHAMBER   THROAT     EXIT
 Pinf/P            1.0000   1.8047   26.724
 P, BAR            67.888   37.617   2.5403
 T, K             1293.16  1149.38   642.40
 RHO, KG/CU M    1.3921 1 8.6790 0 1.0486 0
 H, KJ/KG         -619.11  -890.76 -1782.11
 U, KJ/KG        -1106.76 -1324.19 -2024.36
 G, KJ/KG        -12712.0 -11639.0 -7789.47
 S, KJ/(KG)(K)     9.3514   9.3514   9.3514

 M, (1/n)          22.049   22.049   22.049
 MW, MOL WT        18.064   18.064   18.064
 Cp, KJ/(KG)(K)    1.9129   1.8647   1.6348
 GAMMAs            1.2455   1.2535   1.2998
 SON VEL,M/SEC      779.4    737.1    561.1
 MACH NUMBER        0.000    1.000    2.718

 PERFORMANCE PARAMETERS

 Ae/At                      1.0000   4.0000
 CSTAR, M/SEC               1061.2   1061.2
 CF                         0.6946   1.4372
 Ivac, M/SEC                1325.1   1684.0
 Isp, M/SEC                  737.1   1525.1

 MASS FRACTIONS

 CH4             0.03741   *CO             0.30648   *CO2            0.04431
 C2H4            0.00001   C2H6            0.00002   HCN             0.00009
 HNCO            0.00001   *H2             0.02764   H2O             0.03947
 NH3             0.00064   *N2             0.42374   C(gr)           0.12015

  * THERMODYNAMIC PROPERTIES FITTED TO 20000.K

 NOTE. WEIGHT FRACTION OF FUEL IN TOTAL FUELS AND OF OXIDANT IN TOTAL OXIDANTS

           THEORETICAL ROCKET PERFORMANCE ASSUMING FROZEN COMPOSITION

 Pin =   999.3 PSIA
 CASE = _______________

             REACTANT                    WT FRACTION      ENERGY      TEMP
                                          (SEE NOTE)     KJ/KG-MOL      K  
 FUEL        paraffin                     1.0000000  -1860600.000    298.150
 OXIDANT     N2O                          1.0000000         0.000      0.000

 O/F=    2.00000  %FUEL= 33.333333  R,EQ.RATIO= 4.569263  PHI,EQ.RATIO= 4.569263

                 CHAMBER   THROAT     EXIT
 Pinf/P            1.0000   1.8046   26.714
 P, BAR            68.901   38.181   2.5792
 T, K             1294.18  1150.38   643.21
 RHO, KG/CU M    1.4124 1 8.8049 0 1.0638 0
 H, KJ/KG         -619.11  -890.85 -1782.68
 U, KJ/KG        -1106.95 -1324.49 -2025.14
 G, KJ/KG        -12714.3 -11642.1 -7794.02
 S, KJ/(KG)(K)     9.3458   9.3458   9.3458

 M, (1/n)          22.057   22.057   22.057
 MW, MOL WT        18.071   18.071   18.071
 Cp, KJ/(KG)(K)    1.9132   1.8650   1.6350
 GAMMAs            1.2454   1.2533   1.2996
 SON VEL,M/SEC      779.5    737.2    561.3
 MACH NUMBER        0.000    1.000    2.718

 PERFORMANCE PARAMETERS

 Ae/At                      1.0000   4.0000
 CSTAR, M/SEC               1061.5   1061.5
 CF                         0.6945   1.4372
 Ivac, M/SEC                1325.4   1684.4
 Isp, M/SEC                  737.2   1525.5

 MASS FRACTIONS

 CH4             0.03758   *CO             0.30625   *CO2            0.04437
 C2H4            0.00001   C2H6            0.00002   HCN             0.00009
 HNCO            0.00001   *H2             0.02759   H2O             0.03957
 NH3             0.00065   *N2             0.42374   C(gr)           0.12010

  * THERMODYNAMIC PROPERTIES FITTED TO 20000.K

 NOTE. WEIGHT FRACTION OF FUEL IN TOTAL FUELS AND OF OXIDANT IN TOTAL OXIDANTS

           THEORETICAL ROCKET PERFORMANCE ASSUMING FROZEN COMPOSITION

 Pin =  1014.0 PSIA
 CASE = _______________

             REACTANT                    WT FRACTION      ENERGY      TEMP
                                          (SEE NOTE)     KJ/KG-MOL      K  
 FUEL        paraffin                     1.0000000  -1860600.000    298.150
 OXIDANT     N2O                          1.0000000         0.000      0.000

 O/F=    2.00000  %FUEL= 33.333333  R,EQ.RATIO= 4.569263  PHI,EQ.RATIO= 4.569263

                 CHAMBER   THROAT     EXIT
 Pinf/P            1.0000   1.8045   26.704
 P, BAR            69.914   38.745   2.6181
 T, K             1295.19  1151.36   644.01
 RHO, KG/CU M    1.4326 1 8.9307 0 1.0789 0
 H, KJ/KG         -619.11  -890.94 -1783.24
 U, KJ/KG        -1107.14 -1324.78 -2025.90
 G, KJ/KG        -12716.6 -11645.0 -7798.50
 S, KJ/(KG)(K)     9.3403   9.3403   9.3403

 M, (1/n)          22.066   22.066   22.066
 MW, MOL WT        18.078   18.078   18.078
 Cp, KJ/(KG)(K)    1.9135   1.8653   1.6352
 GAMMAs            1.2452   1.2531   1.2994
 SON VEL,M/SEC      779.5    737.3    561.5
 MACH NUMBER        0.000    1.000    2.717

 PERFORMANCE PARAMETERS

 Ae/At                      1.0000   4.0000
 CSTAR, M/SEC               1061.7   1061.7
 CF                         0.6945   1.4371
 Ivac, M/SEC                1325.7   1684.9
 Isp, M/SEC                  737.3   1525.9

 MASS FRACTIONS

 CH4             0.03775   *CO             0.30602   *CO2            0.04443
 C2H4            0.00001   C2H6            0.00002   HCN             0.00009
 HNCO            0.00001   *H2             0.02753   H2O             0.03967
 NH3             0.00066   *N2             0.42373   C(gr)           0.12006

  * THERMODYNAMIC PROPERTIES FITTED TO 20000.K

 NOTE. WEIGHT FRACTION OF FUEL IN TOTAL FUELS AND OF OXIDANT IN TOTAL OXIDANTS

           THEORETICAL ROCKET PERFORMANCE ASSUMING FROZEN COMPOSITION

 Pin =  1028.7 PSIA
 CASE = _______________

             REACTANT                    WT FRACTION      ENERGY      TEMP
                                          (SEE NOTE)     KJ/KG-MOL      K  
 FUEL        paraffin                     1.0000000  -1860600.000    298.150
 OXIDANT     N2O                          1.0000000         0.000      0.000

 O/F=    2.00000  %FUEL= 33.333333  R,EQ.RATIO= 4.569263  PHI,EQ.RATIO= 4.569263

                 CHAMBER   THROAT     EXIT
 Pinf/P            1.0000   1.8044   26.695
 P, BAR            70.927   39.309   2.6570
 T, K             1296.19  1152.34   644.80
 RHO, KG/CU M    1.4528 1 9.0565 0 1.0940 0
 H, KJ/KG         -619.11  -891.02 -1783.79
 U, KJ/KG        -1107.33 -1325.06 -2026.66
 G, KJ/KG        -12718.9 -11648.0 -7802.93
 S, KJ/(KG)(K)     9.3349   9.3349   9.3349

 M, (1/n)          22.074   22.074   22.074
 MW, MOL WT        18.085   18.085   18.085
 Cp, KJ/(KG)(K)    1.9139   1.8656   1.6354
 GAMMAs            1.2450   1.2530   1.2992
 SON VEL,M/SEC      779.6    737.5    561.7
 MACH NUMBER        0.000    1.000    2.717

 PERFORMANCE PARAMETERS

 Ae/At                      1.0000   4.0000
 CSTAR, M/SEC               1062.0   1062.0
 CF                         0.6944   1.4371
 Ivac, M/SEC                1326.0   1685.4
 Isp, M/SEC                  737.5   1526.2

 MASS FRACTIONS

 CH4             0.03792   *CO             0.30580   *CO2            0.04449
 C2H4            0.00001   C2H6            0.00002   HCN             0.00009
 HNCO            0.00001   *H2             0.02748   H2O             0.03977
 NH3             0.00066   *N2             0.42373   C(gr)           0.12001

  * THERMODYNAMIC PROPERTIES FITTED TO 20000.K

 NOTE. WEIGHT FRACTION OF FUEL IN TOTAL FUELS AND OF OXIDANT IN TOTAL OXIDANTS

           THEORETICAL ROCKET PERFORMANCE ASSUMING FROZEN COMPOSITION

 Pin =  1043.4 PSIA
 CASE = _______________

             REACTANT                    WT FRACTION      ENERGY      TEMP
                                          (SEE NOTE)     KJ/KG-MOL      K  
 FUEL        paraffin                     1.0000000  -1860600.000    298.150
 OXIDANT     N2O                          1.0000000         0.000      0.000

 O/F=    2.00000  %FUEL= 33.333333  R,EQ.RATIO= 4.569263  PHI,EQ.RATIO= 4.569263

                 CHAMBER   THROAT     EXIT
 Pinf/P            1.0000   1.8043   26.685
 P, BAR            71.941   39.873   2.6959
 T, K             1297.17  1153.30   645.58
 RHO, KG/CU M    1.4730 1 9.1823 0 1.1091 0
 H, KJ/KG         -619.11  -891.11 -1784.33
 U, KJ/KG        -1107.51 -1325.35 -2027.40
 G, KJ/KG        -12721.1 -11650.9 -7807.30
 S, KJ/(KG)(K)     9.3296   9.3296   9.3296

 M, (1/n)          22.083   22.083   22.083
 MW, MOL WT        18.092   18.092   18.092
 Cp, KJ/(KG)(K)    1.9142   1.8660   1.6356
 GAMMAs            1.2449   1.2528   1.2990
 SON VEL,M/SEC      779.7    737.6    561.9
 MACH NUMBER        0.000    1.000    2.717

 PERFORMANCE PARAMETERS

 Ae/At                      1.0000   4.0000
 CSTAR, M/SEC               1062.2   1062.2
 CF                         0.6944   1.4371
 Ivac, M/SEC                1326.3   1685.8
 Isp, M/SEC                  737.6   1526.6

 MASS FRACTIONS

 CH4             0.03809   *CO             0.30557   *CO2            0.04455
 C2H4            0.00001   C2H6            0.00002   HCN             0.00009
 HNCO            0.00001   *H2             0.02743   H2O             0.03986
 NH3             0.00067   *N2             0.42372   C(gr)           0.11997

  * THERMODYNAMIC PROPERTIES FITTED TO 20000.K

 NOTE. WEIGHT FRACTION OF FUEL IN TOTAL FUELS AND OF OXIDANT IN TOTAL OXIDANTS

           THEORETICAL ROCKET PERFORMANCE ASSUMING FROZEN COMPOSITION

 Pin =  1058.1 PSIA
 CASE = _______________

             REACTANT                    WT FRACTION      ENERGY      TEMP
                                          (SEE NOTE)     KJ/KG-MOL      K  
 FUEL        paraffin                     1.0000000  -1860600.000    298.150
 OXIDANT     N2O                          1.0000000         0.000      0.000

 O/F=    2.00000  %FUEL= 33.333333  R,EQ.RATIO= 4.569263  PHI,EQ.RATIO= 4.569263

                 CHAMBER   THROAT     EXIT
 Pinf/P            1.0000   1.8042   26.676
 P, BAR            72.954   40.437   2.7349
 T, K             1298.14  1154.25   646.35
 RHO, KG/CU M    1.4932 1 9.3080 0 1.1242 0
 H, KJ/KG         -619.11  -891.19 -1784.86
 U, KJ/KG        -1107.69 -1325.63 -2028.13
 G, KJ/KG        -12723.3 -11653.7 -7811.62
 S, KJ/(KG)(K)     9.3243   9.3243   9.3243

 M, (1/n)          22.091   22.091   22.091
 MW, MOL WT        18.099   18.099   18.099
 Cp, KJ/(KG)(K)    1.9145   1.8663   1.6358
 GAMMAs            1.2447   1.2526   1.2989
 SON VEL,M/SEC      779.8    737.7    562.1
 MACH NUMBER        0.000    1.000    2.716

 PERFORMANCE PARAMETERS

 Ae/At                      1.0000   4.0000
 CSTAR, M/SEC               1062.5   1062.5
 CF                         0.6943   1.4371
 Ivac, M/SEC                1326.6   1686.2
 Isp, M/SEC                  737.7   1526.9

 MASS FRACTIONS

 CH4             0.03825   *CO             0.30535   *CO2            0.04461
 C2H4            0.00001   C2H6            0.00002   HCN             0.00009
 HNCO            0.00001   *H2             0.02738   H2O             0.03995
 NH3             0.00067   *N2             0.42372   C(gr)           0.11992

  * THERMODYNAMIC PROPERTIES FITTED TO 20000.K

 NOTE. WEIGHT FRACTION OF FUEL IN TOTAL FUELS AND OF OXIDANT IN TOTAL OXIDANTS