         NASA-GLENN CHEMICAL EQUILIBRIUM PROGRAM CEA2, FEBRUARY 5, 2004
                   BY  BONNIE MCBRIDE AND SANFORD GORDON
      REFS: NASA RP-1311, PART I, 1994 AND NASA RP-1311, PART II, 1996

 *******************************************************************************

  
 ### CEA analysis performed on Tue 12-Oct-2021 14:54:39
  
 # Problem Type: "Rocket" (Infinite Area Combustor)
  
 prob case=_______________1617 ro frozen
  
 # Pressure (24 values):
 p,atm= 1, 2, 3, 4, 5, 6, 7, 8, 9, 10, 11, 12, 13, 14, 15, 16, 17, 18, 19, 20, 21
 , 22, 23, 24
 # Supersonic Area Ratio (1 value):
 supar= 4
  
 # Oxidizer/Fuel Wt. ratio (31 values):
 o/f= 18.3, 18.5, 18.7, 18.9, 19.1, 19.3, 19.5, 19.7, 19.9, 20.1, 20.3, 20.5, 20.
 7, 20.9, 21.1, 21.3, 21.5, 21.7, 21.9, 22.1, 22.3, 2
  
 # You selected the following fuels and oxidizers:
 reac
 fuel paraffin          wt%=100.0000
 oxid N2O               wt%=100.0000
  
 # You selected these options for output:
 # short version of output
 output short
 # Proportions of any products will be expressed as Mass Fractions.
 output massf
 # Heat will be expressed as siunits
 output siunits
  
 # Input prepared by this script:/var/www/sites/cearun.grc.nasa.gov/cgi-bin/CEARU
 N/prepareInputFile.cgi
  
 ### IMPORTANT:  The following line is the end of your CEA input file!
 end

           THEORETICAL ROCKET PERFORMANCE ASSUMING FROZEN COMPOSITION

 Pin =    14.7 PSIA
 CASE = _______________

             REACTANT                    WT FRACTION      ENERGY      TEMP
                                          (SEE NOTE)     KJ/KG-MOL      K  
 FUEL        paraffin                     1.0000000  -1860600.000    298.150
 OXIDANT     N2O                          1.0000000         0.000      0.000

 O/F=   18.30000  %FUEL=  5.181347  R,EQ.RATIO= 0.499373  PHI,EQ.RATIO= 0.499373

                 CHAMBER   THROAT     EXIT
 Pinf/P            1.0000   1.8108   26.885
 P, BAR            1.0132  0.55957  0.03769
 T, K             2013.57  1780.59   987.97
 RHO, KG/CU M    1.7826-1 1.1133-1 1.3514-2
 H, KJ/KG         -96.234  -413.85 -1443.43
 U, KJ/KG         -664.63  -916.48 -1722.31
 G, KJ/KG        -18661.4 -16830.9 -10552.5
 S, KJ/(KG)(K)     9.2200   9.2200   9.2200

 M, (1/n)          29.454   29.454   29.454
 Cp, KJ/(KG)(K)    1.3734   1.3524   1.2272
 GAMMAs            1.2587   1.2638   1.2987
 SON VEL,M/SEC      845.8    797.0    601.8
 MACH NUMBER        0.000    1.000    2.727

 PERFORMANCE PARAMETERS

 Ae/At                      1.0000   4.0000
 CSTAR, M/SEC               1142.0   1142.0
 CF                         0.6979   1.4374
 Ivac, M/SEC                1427.7   1811.4
 Isp, M/SEC                  797.0   1641.5

 MASS FRACTIONS

 *CO             0.00039   *CO2            0.16555   *H2             0.00001
 H2O             0.05704   *NO             0.00623   NO2             0.00001
 *N2             0.60059   *O              0.00016   *OH             0.00127
 *O2             0.16873

  * THERMODYNAMIC PROPERTIES FITTED TO 20000.K

 NOTE. WEIGHT FRACTION OF FUEL IN TOTAL FUELS AND OF OXIDANT IN TOTAL OXIDANTS

           THEORETICAL ROCKET PERFORMANCE ASSUMING FROZEN COMPOSITION

 Pin =    29.4 PSIA
 CASE = _______________

             REACTANT                    WT FRACTION      ENERGY      TEMP
                                          (SEE NOTE)     KJ/KG-MOL      K  
 FUEL        paraffin                     1.0000000  -1860600.000    298.150
 OXIDANT     N2O                          1.0000000         0.000      0.000

 O/F=   18.30000  %FUEL=  5.181347  R,EQ.RATIO= 0.499373  PHI,EQ.RATIO= 0.499373

                 CHAMBER   THROAT     EXIT
 Pinf/P            1.0000   1.8107   26.876
 P, BAR            2.0265   1.1192  0.07540
 T, K             2016.24  1783.05   989.65
 RHO, KG/CU M    3.5613-1 2.2240-1 2.6996-2
 H, KJ/KG         -96.234  -414.19 -1445.02
 U, KJ/KG         -665.27  -917.42 -1724.33
 G, KJ/KG        -18291.5 -16505.1 -10376.0
 S, KJ/(KG)(K)     9.0244   9.0244   9.0244

 M, (1/n)          29.460   29.460   29.460
 Cp, KJ/(KG)(K)    1.3737   1.3526   1.2276
 GAMMAs            1.2586   1.2637   1.2985
 SON VEL,M/SEC      846.3    797.4    602.2
 MACH NUMBER        0.000    1.000    2.727

 PERFORMANCE PARAMETERS

 Ae/At                     1.00000   4.0000
 CSTAR, M/SEC               1142.6   1142.6
 CF                         0.6979   1.4374
 Ivac, M/SEC                1428.5   1812.5
 Isp, M/SEC                  797.4   1642.4

 MASS FRACTIONS

 *CO             0.00028   *CO2            0.16572   H2O             0.05716
 *NO             0.00628   NO2             0.00002   *N2             0.60057
 *O              0.00011   *OH             0.00109   *O2             0.16876

  * THERMODYNAMIC PROPERTIES FITTED TO 20000.K

 NOTE. WEIGHT FRACTION OF FUEL IN TOTAL FUELS AND OF OXIDANT IN TOTAL OXIDANTS

           THEORETICAL ROCKET PERFORMANCE ASSUMING FROZEN COMPOSITION

 Pin =    44.1 PSIA
 CASE = _______________

             REACTANT                    WT FRACTION      ENERGY      TEMP
                                          (SEE NOTE)     KJ/KG-MOL      K  
 FUEL        paraffin                     1.0000000  -1860600.000    298.150
 OXIDANT     N2O                          1.0000000         0.000      0.000

 O/F=   18.30000  %FUEL=  5.181347  R,EQ.RATIO= 0.499373  PHI,EQ.RATIO= 0.499373

                 CHAMBER   THROAT     EXIT
 Pinf/P            1.0000   1.8106   26.872
 P, BAR            3.0397   1.6788  0.11312
 T, K             2017.53  1784.24   990.47
 RHO, KG/CU M    5.3390-1 3.3342-1 4.0470-2
 H, KJ/KG         -96.234  -414.35 -1445.80
 U, KJ/KG         -665.58  -917.87 -1725.31
 G, KJ/KG        -18072.3 -16311.8 -10270.8
 S, KJ/(KG)(K)     8.9099   8.9099   8.9099

 M, (1/n)          29.463   29.463   29.463
 Cp, KJ/(KG)(K)    1.3738   1.3527   1.2278
 GAMMAs            1.2585   1.2636   1.2984
 SON VEL,M/SEC      846.5    797.6    602.4
 MACH NUMBER        0.000    1.000    2.727

 PERFORMANCE PARAMETERS

 Ae/At                     1.00000   4.0000
 CSTAR, M/SEC               1143.0   1143.0
 CF                         0.6979   1.4374
 Ivac, M/SEC                1428.9   1813.0
 Isp, M/SEC                  797.6   1642.9

 MASS FRACTIONS

 *CO             0.00023   *CO2            0.16580   H2O             0.05722
 *NO             0.00630   NO2             0.00002   *N2             0.60055
 *O              0.00009   *OH             0.00099   *O2             0.16878

  * THERMODYNAMIC PROPERTIES FITTED TO 20000.K

 NOTE. WEIGHT FRACTION OF FUEL IN TOTAL FUELS AND OF OXIDANT IN TOTAL OXIDANTS

           THEORETICAL ROCKET PERFORMANCE ASSUMING FROZEN COMPOSITION

 Pin =    58.8 PSIA
 CASE = _______________

             REACTANT                    WT FRACTION      ENERGY      TEMP
                                          (SEE NOTE)     KJ/KG-MOL      K  
 FUEL        paraffin                     1.0000000  -1860600.000    298.150
 OXIDANT     N2O                          1.0000000         0.000      0.000

 O/F=   18.30000  %FUEL=  5.181347  R,EQ.RATIO= 0.499373  PHI,EQ.RATIO= 0.499373

                 CHAMBER   THROAT     EXIT
 Pinf/P            1.0000   1.8106   26.870
 P, BAR            4.0530   2.2385  0.15084
 T, K             2018.34  1784.99   990.98
 RHO, KG/CU M    7.1162-1 4.4441-1 5.3940-2
 H, KJ/KG         -96.234  -414.46 -1446.28
 U, KJ/KG         -665.78  -918.15 -1725.92
 G, KJ/KG        -17915.7 -16173.7 -10195.4
 S, KJ/(KG)(K)     8.8288   8.8288   8.8288

 M, (1/n)          29.465   29.465   29.465
 Cp, KJ/(KG)(K)    1.3738   1.3528   1.2279
 GAMMAs            1.2585   1.2636   1.2984
 SON VEL,M/SEC      846.6    797.8    602.6
 MACH NUMBER        0.000    1.000    2.727

 PERFORMANCE PARAMETERS

 Ae/At                      1.0000   4.0000
 CSTAR, M/SEC               1143.2   1143.2
 CF                         0.6979   1.4374
 Ivac, M/SEC                1429.2   1813.4
 Isp, M/SEC                  797.8   1643.2

 MASS FRACTIONS

 *CO             0.00020   *CO2            0.16585   H2O             0.05725
 *NO             0.00632   NO2             0.00003   *N2             0.60055
 *O              0.00008   *OH             0.00092   *O2             0.16879

  * THERMODYNAMIC PROPERTIES FITTED TO 20000.K

 NOTE. WEIGHT FRACTION OF FUEL IN TOTAL FUELS AND OF OXIDANT IN TOTAL OXIDANTS

           THEORETICAL ROCKET PERFORMANCE ASSUMING FROZEN COMPOSITION

 Pin =    73.5 PSIA
 CASE = _______________

             REACTANT                    WT FRACTION      ENERGY      TEMP
                                          (SEE NOTE)     KJ/KG-MOL      K  
 FUEL        paraffin                     1.0000000  -1860600.000    298.150
 OXIDANT     N2O                          1.0000000         0.000      0.000

 O/F=   18.30000  %FUEL=  5.181347  R,EQ.RATIO= 0.499373  PHI,EQ.RATIO= 0.499373

                 CHAMBER   THROAT     EXIT
 Pinf/P            1.0000   1.8106   26.868
 P, BAR            5.0663   2.7981  0.18856
 T, K             2018.92  1785.52   991.35
 RHO, KG/CU M    8.8931-1 5.5537-1 6.7408-2
 H, KJ/KG         -96.234  -414.53 -1446.63
 U, KJ/KG         -665.92  -918.36 -1726.36
 G, KJ/KG        -17793.7 -16066.0 -10136.6
 S, KJ/(KG)(K)     8.7658   8.7658   8.7658

 M, (1/n)          29.466   29.466   29.466
 Cp, KJ/(KG)(K)    1.3739   1.3529   1.2280
 GAMMAs            1.2585   1.2635   1.2983
 SON VEL,M/SEC      846.7    797.9    602.6
 MACH NUMBER        0.000    1.000    2.727

 PERFORMANCE PARAMETERS

 Ae/At                      1.0000   4.0000
 CSTAR, M/SEC               1143.3   1143.3
 CF                         0.6979   1.4374
 Ivac, M/SEC                1429.3   1813.6
 Isp, M/SEC                  797.9   1643.4

 MASS FRACTIONS

 *CO             0.00018   *CO2            0.16588   H2O             0.05728
 *NO             0.00633   NO2             0.00003   *N2             0.60054
 *O              0.00007   *OH             0.00088   *O2             0.16880

  * THERMODYNAMIC PROPERTIES FITTED TO 20000.K

 NOTE. WEIGHT FRACTION OF FUEL IN TOTAL FUELS AND OF OXIDANT IN TOTAL OXIDANTS

           THEORETICAL ROCKET PERFORMANCE ASSUMING FROZEN COMPOSITION

 Pin =    88.2 PSIA
 CASE = _______________

             REACTANT                    WT FRACTION      ENERGY      TEMP
                                          (SEE NOTE)     KJ/KG-MOL      K  
 FUEL        paraffin                     1.0000000  -1860600.000    298.150
 OXIDANT     N2O                          1.0000000         0.000      0.000

 O/F=   18.30000  %FUEL=  5.181347  R,EQ.RATIO= 0.499373  PHI,EQ.RATIO= 0.499373

                 CHAMBER   THROAT     EXIT
 Pinf/P            1.0000   1.8106   26.867
 P, BAR            6.0795   3.3578  0.22628
 T, K             2019.36  1785.93   991.63
 RHO, KG/CU M    1.0670 0 6.6632-1 8.0874-2
 H, KJ/KG         -96.234  -414.59 -1446.90
 U, KJ/KG         -666.02  -918.51 -1726.70
 G, KJ/KG        -17693.7 -15977.8 -10088.3
 S, KJ/(KG)(K)     8.7143   8.7143   8.7143

 M, (1/n)          29.467   29.467   29.467
 Cp, KJ/(KG)(K)    1.3739   1.3529   1.2281
 GAMMAs            1.2584   1.2635   1.2983
 SON VEL,M/SEC      846.8    797.9    602.7
 MACH NUMBER        0.000    1.000    2.727

 PERFORMANCE PARAMETERS

 Ae/At                      1.0000   4.0000
 CSTAR, M/SEC               1143.4   1143.4
 CF                         0.6978   1.4374
 Ivac, M/SEC                1429.5   1813.8
 Isp, M/SEC                  797.9   1643.6

 MASS FRACTIONS

 *CO             0.00017   *CO2            0.16590   H2O             0.05730
 *NO             0.00633   NO2             0.00003   *N2             0.60054
 *O              0.00007   *OH             0.00084   *O2             0.16880

  * THERMODYNAMIC PROPERTIES FITTED TO 20000.K

 NOTE. WEIGHT FRACTION OF FUEL IN TOTAL FUELS AND OF OXIDANT IN TOTAL OXIDANTS

           THEORETICAL ROCKET PERFORMANCE ASSUMING FROZEN COMPOSITION

 Pin =   102.9 PSIA
 CASE = _______________

             REACTANT                    WT FRACTION      ENERGY      TEMP
                                          (SEE NOTE)     KJ/KG-MOL      K  
 FUEL        paraffin                     1.0000000  -1860600.000    298.150
 OXIDANT     N2O                          1.0000000         0.000      0.000

 O/F=   18.30000  %FUEL=  5.181347  R,EQ.RATIO= 0.499373  PHI,EQ.RATIO= 0.499373

                 CHAMBER   THROAT     EXIT
 Pinf/P            1.0000   1.8106   26.865
 P, BAR            7.0927   3.9174  0.26401
 T, K             2019.71  1786.25   991.85
 RHO, KG/CU M    1.2446 0 7.7726-1 9.4338-2
 H, KJ/KG         -96.234  -414.63 -1447.11
 U, KJ/KG         -666.11  -918.64 -1726.96
 G, KJ/KG        -17608.9 -15903.0 -10047.3
 S, KJ/(KG)(K)     8.6709   8.6709   8.6709

 M, (1/n)          29.468   29.468   29.468
 Cp, KJ/(KG)(K)    1.3740   1.3530   1.2281
 GAMMAs            1.2584   1.2635   1.2983
 SON VEL,M/SEC      846.8    798.0    602.8
 MACH NUMBER        0.000    1.000    2.727

 PERFORMANCE PARAMETERS

 Ae/At                      1.0000   4.0000
 CSTAR, M/SEC               1143.5   1143.5
 CF                         0.6978   1.4374
 Ivac, M/SEC                1429.6   1814.0
 Isp, M/SEC                  798.0   1643.7

 MASS FRACTIONS

 *CO             0.00016   *CO2            0.16592   H2O             0.05732
 *NO             0.00634   NO2             0.00004   *N2             0.60053
 *O              0.00006   *OH             0.00081   *O2             0.16881

  * THERMODYNAMIC PROPERTIES FITTED TO 20000.K

 NOTE. WEIGHT FRACTION OF FUEL IN TOTAL FUELS AND OF OXIDANT IN TOTAL OXIDANTS

           THEORETICAL ROCKET PERFORMANCE ASSUMING FROZEN COMPOSITION

 Pin =   117.6 PSIA
 CASE = _______________

             REACTANT                    WT FRACTION      ENERGY      TEMP
                                          (SEE NOTE)     KJ/KG-MOL      K  
 FUEL        paraffin                     1.0000000  -1860600.000    298.150
 OXIDANT     N2O                          1.0000000         0.000      0.000

 O/F=   18.30000  %FUEL=  5.181347  R,EQ.RATIO= 0.499373  PHI,EQ.RATIO= 0.499373

                 CHAMBER   THROAT     EXIT
 Pinf/P            1.0000   1.8106   26.865
 P, BAR            8.1060   4.4771  0.30174
 T, K             2020.01  1786.52   992.04
 RHO, KG/CU M    1.4222 0 8.8819-1 1.0780-1
 H, KJ/KG         -96.234  -414.67 -1447.28
 U, KJ/KG         -666.18  -918.74 -1727.18
 G, KJ/KG        -17535.3 -15838.0 -10011.7
 S, KJ/(KG)(K)     8.6332   8.6332   8.6332

 M, (1/n)          29.468   29.468   29.468
 Cp, KJ/(KG)(K)    1.3740   1.3530   1.2282
 GAMMAs            1.2584   1.2635   1.2983
 SON VEL,M/SEC      846.9    798.0    602.8
 MACH NUMBER        0.000    1.000    2.727

 PERFORMANCE PARAMETERS

 Ae/At                      1.0000   4.0000
 CSTAR, M/SEC               1143.6   1143.6
 CF                         0.6978   1.4374
 Ivac, M/SEC                1429.7   1814.1
 Isp, M/SEC                  798.0   1643.8

 MASS FRACTIONS

 *CO             0.00015   *CO2            0.16594   H2O             0.05734
 *NO             0.00635   NO2             0.00004   *N2             0.60053
 *O              0.00006   *OH             0.00078   *O2             0.16881

  * THERMODYNAMIC PROPERTIES FITTED TO 20000.K

 NOTE. WEIGHT FRACTION OF FUEL IN TOTAL FUELS AND OF OXIDANT IN TOTAL OXIDANTS

           THEORETICAL ROCKET PERFORMANCE ASSUMING FROZEN COMPOSITION

 Pin =   132.3 PSIA
 CASE = _______________

             REACTANT                    WT FRACTION      ENERGY      TEMP
                                          (SEE NOTE)     KJ/KG-MOL      K  
 FUEL        paraffin                     1.0000000  -1860600.000    298.150
 OXIDANT     N2O                          1.0000000         0.000      0.000

 O/F=   18.30000  %FUEL=  5.181347  R,EQ.RATIO= 0.499373  PHI,EQ.RATIO= 0.499373

                 CHAMBER   THROAT     EXIT
 Pinf/P            1.0000   1.8106   26.864
 P, BAR            9.1192   5.0367  0.33946
 T, K             2020.25  1786.75   992.19
 RHO, KG/CU M    1.5999 0 9.9911-1 1.2126-1
 H, KJ/KG         -96.234  -414.70 -1447.43
 U, KJ/KG         -666.24  -918.82 -1727.37
 G, KJ/KG        -17470.3 -15780.7 -9980.23
 S, KJ/(KG)(K)     8.5999   8.5999   8.5999

 M, (1/n)          29.469   29.469   29.469
 Cp, KJ/(KG)(K)    1.3740   1.3530   1.2282
 GAMMAs            1.2584   1.2635   1.2982
 SON VEL,M/SEC      846.9    798.1    602.9
 MACH NUMBER        0.000    1.000    2.727

 PERFORMANCE PARAMETERS

 Ae/At                      1.0000   4.0000
 CSTAR, M/SEC               1143.7   1143.7
 CF                         0.6978   1.4374
 Ivac, M/SEC                1429.7   1814.2
 Isp, M/SEC                  798.1   1643.9

 MASS FRACTIONS

 *CO             0.00014   *CO2            0.16595   H2O             0.05735
 *NO             0.00635   NO2             0.00004   *N2             0.60053
 *O              0.00006   *OH             0.00076   *O2             0.16882

  * THERMODYNAMIC PROPERTIES FITTED TO 20000.K

 NOTE. WEIGHT FRACTION OF FUEL IN TOTAL FUELS AND OF OXIDANT IN TOTAL OXIDANTS

           THEORETICAL ROCKET PERFORMANCE ASSUMING FROZEN COMPOSITION

 Pin =   147.0 PSIA
 CASE = _______________

             REACTANT                    WT FRACTION      ENERGY      TEMP
                                          (SEE NOTE)     KJ/KG-MOL      K  
 FUEL        paraffin                     1.0000000  -1860600.000    298.150
 OXIDANT     N2O                          1.0000000         0.000      0.000

 O/F=   18.30000  %FUEL=  5.181347  R,EQ.RATIO= 0.499373  PHI,EQ.RATIO= 0.499373

                 CHAMBER   THROAT     EXIT
 Pinf/P            1.0000   1.8106   26.863
 P, BAR            10.133   5.5964  0.37719
 T, K             2020.46  1786.95   992.33
 RHO, KG/CU M    1.7775 0 1.1100 0 1.3472-1
 H, KJ/KG         -96.234  -414.73 -1447.56
 U, KJ/KG         -666.29  -918.90 -1727.53
 G, KJ/KG        -17412.1 -15729.2 -9952.01
 S, KJ/(KG)(K)     8.5702   8.5702   8.5702

 M, (1/n)          29.470   29.470   29.470
 Cp, KJ/(KG)(K)    1.3740   1.3530   1.2282
 GAMMAs            1.2584   1.2635   1.2982
 SON VEL,M/SEC      847.0    798.1    602.9
 MACH NUMBER        0.000    1.000    2.727

 PERFORMANCE PARAMETERS

 Ae/At                      1.0000   4.0000
 CSTAR, M/SEC               1143.7   1143.7
 CF                         0.6978   1.4374
 Ivac, M/SEC                1429.8   1814.3
 Isp, M/SEC                  798.1   1644.0

 MASS FRACTIONS

 *CO             0.00013   *CO2            0.16596   H2O             0.05736
 *NO             0.00635   NO2             0.00004   *N2             0.60052
 *O              0.00005   *OH             0.00074   *O2             0.16882

  * THERMODYNAMIC PROPERTIES FITTED TO 20000.K

 NOTE. WEIGHT FRACTION OF FUEL IN TOTAL FUELS AND OF OXIDANT IN TOTAL OXIDANTS

           THEORETICAL ROCKET PERFORMANCE ASSUMING FROZEN COMPOSITION

 Pin =   161.7 PSIA
 CASE = _______________

             REACTANT                    WT FRACTION      ENERGY      TEMP
                                          (SEE NOTE)     KJ/KG-MOL      K  
 FUEL        paraffin                     1.0000000  -1860600.000    298.150
 OXIDANT     N2O                          1.0000000         0.000      0.000

 O/F=   18.30000  %FUEL=  5.181347  R,EQ.RATIO= 0.499373  PHI,EQ.RATIO= 0.499373

                 CHAMBER   THROAT     EXIT
 Pinf/P            1.0000   1.8105   26.862
 P, BAR            11.146   6.1560  0.41492
 T, K             2020.65  1787.12   992.44
 RHO, KG/CU M    1.9551 0 1.2209 0 1.4818-1
 H, KJ/KG         -96.234  -414.75 -1447.67
 U, KJ/KG         -666.33  -918.96 -1727.67
 G, KJ/KG        -17359.3 -15682.7 -9926.45
 S, KJ/(KG)(K)     8.5433   8.5433   8.5433

 M, (1/n)          29.470   29.470   29.470
 Cp, KJ/(KG)(K)    1.3741   1.3530   1.2283
 GAMMAs            1.2584   1.2635   1.2982
 SON VEL,M/SEC      847.0    798.2    602.9
 MACH NUMBER        0.000    1.000    2.727

 PERFORMANCE PARAMETERS

 Ae/At                      1.0000   4.0000
 CSTAR, M/SEC               1143.8   1143.8
 CF                         0.6978   1.4374
 Ivac, M/SEC                1429.9   1814.4
 Isp, M/SEC                  798.1   1644.0

 MASS FRACTIONS

 *CO             0.00013   *CO2            0.16597   HO2             0.00001
 H2O             0.05737   *NO             0.00636   NO2             0.00005
 *N2             0.60052   *O              0.00005   *OH             0.00073
 *O2             0.16882

  * THERMODYNAMIC PROPERTIES FITTED TO 20000.K

 NOTE. WEIGHT FRACTION OF FUEL IN TOTAL FUELS AND OF OXIDANT IN TOTAL OXIDANTS

           THEORETICAL ROCKET PERFORMANCE ASSUMING FROZEN COMPOSITION

 Pin =   176.4 PSIA
 CASE = _______________

             REACTANT                    WT FRACTION      ENERGY      TEMP
                                          (SEE NOTE)     KJ/KG-MOL      K  
 FUEL        paraffin                     1.0000000  -1860600.000    298.150
 OXIDANT     N2O                          1.0000000         0.000      0.000

 O/F=   18.30000  %FUEL=  5.181347  R,EQ.RATIO= 0.499373  PHI,EQ.RATIO= 0.499373

                 CHAMBER   THROAT     EXIT
 Pinf/P            1.0000   1.8105   26.862
 P, BAR            12.159   6.7157  0.45265
 T, K             2020.81  1787.27   992.55
 RHO, KG/CU M    2.1326 0 1.3318 0 1.6164-1
 H, KJ/KG         -96.234  -414.77 -1447.76
 U, KJ/KG         -666.37  -919.02 -1727.79
 G, KJ/KG        -17311.1 -15640.1 -9903.07
 S, KJ/(KG)(K)     8.5188   8.5188   8.5188

 M, (1/n)          29.470   29.470   29.470
 Cp, KJ/(KG)(K)    1.3741   1.3531   1.2283
 GAMMAs            1.2584   1.2634   1.2982
 SON VEL,M/SEC      847.0    798.2    602.9
 MACH NUMBER        0.000    1.000    2.727

 PERFORMANCE PARAMETERS

 Ae/At                      1.0000   4.0000
 CSTAR, M/SEC               1143.8   1143.8
 CF                         0.6978   1.4374
 Ivac, M/SEC                1429.9   1814.4
 Isp, M/SEC                  798.2   1644.1

 MASS FRACTIONS

 *CO             0.00012   *CO2            0.16598   HO2             0.00001
 H2O             0.05738   *NO             0.00636   NO2             0.00005
 *N2             0.60052   *O              0.00005   *OH             0.00071
 *O2             0.16883

  * THERMODYNAMIC PROPERTIES FITTED TO 20000.K

 NOTE. WEIGHT FRACTION OF FUEL IN TOTAL FUELS AND OF OXIDANT IN TOTAL OXIDANTS

           THEORETICAL ROCKET PERFORMANCE ASSUMING FROZEN COMPOSITION

 Pin =   191.0 PSIA
 CASE = _______________

             REACTANT                    WT FRACTION      ENERGY      TEMP
                                          (SEE NOTE)     KJ/KG-MOL      K  
 FUEL        paraffin                     1.0000000  -1860600.000    298.150
 OXIDANT     N2O                          1.0000000         0.000      0.000

 O/F=   18.30000  %FUEL=  5.181347  R,EQ.RATIO= 0.499373  PHI,EQ.RATIO= 0.499373

                 CHAMBER   THROAT     EXIT
 Pinf/P            1.0000   1.8105   26.861
 P, BAR            13.172   7.2753  0.49038
 T, K             2020.96  1787.40   992.64
 RHO, KG/CU M    2.3102 0 1.4427 0 1.7510-1
 H, KJ/KG         -96.234  -414.79 -1447.85
 U, KJ/KG         -666.41  -919.07 -1727.91
 G, KJ/KG        -17266.7 -15600.9 -9881.53
 S, KJ/(KG)(K)     8.4962   8.4962   8.4962

 M, (1/n)          29.471   29.471   29.471
 Cp, KJ/(KG)(K)    1.3741   1.3531   1.2283
 GAMMAs            1.2584   1.2634   1.2982
 SON VEL,M/SEC      847.0    798.2    603.0
 MACH NUMBER        0.000    1.000    2.727

 PERFORMANCE PARAMETERS

 Ae/At                     1.00000   4.0000
 CSTAR, M/SEC               1143.8   1143.8
 CF                         0.6978   1.4374
 Ivac, M/SEC                1430.0   1814.5
 Isp, M/SEC                  798.2   1644.2

 MASS FRACTIONS

 *CO             0.00012   *CO2            0.16599   HO2             0.00001
 H2O             0.05739   *NO             0.00636   NO2             0.00005
 *N2             0.60052   *O              0.00005   *OH             0.00070
 *O2             0.16883

  * THERMODYNAMIC PROPERTIES FITTED TO 20000.K

 NOTE. WEIGHT FRACTION OF FUEL IN TOTAL FUELS AND OF OXIDANT IN TOTAL OXIDANTS

           THEORETICAL ROCKET PERFORMANCE ASSUMING FROZEN COMPOSITION

 Pin =   205.7 PSIA
 CASE = _______________

             REACTANT                    WT FRACTION      ENERGY      TEMP
                                          (SEE NOTE)     KJ/KG-MOL      K  
 FUEL        paraffin                     1.0000000  -1860600.000    298.150
 OXIDANT     N2O                          1.0000000         0.000      0.000

 O/F=   18.30000  %FUEL=  5.181347  R,EQ.RATIO= 0.499373  PHI,EQ.RATIO= 0.499373

                 CHAMBER   THROAT     EXIT
 Pinf/P            1.0000   1.8105   26.861
 P, BAR            14.185   7.8350  0.52811
 T, K             2021.09  1787.53   992.73
 RHO, KG/CU M    2.4878 0 1.5536 0 1.8856-1
 H, KJ/KG         -96.234  -414.81 -1447.93
 U, KJ/KG         -666.44  -919.12 -1728.00
 G, KJ/KG        -17225.6 -15564.6 -9861.57
 S, KJ/(KG)(K)     8.4753   8.4753   8.4753

 M, (1/n)          29.471   29.471   29.471
 Cp, KJ/(KG)(K)    1.3741   1.3531   1.2283
 GAMMAs            1.2584   1.2634   1.2982
 SON VEL,M/SEC      847.1    798.2    603.0
 MACH NUMBER        0.000    1.000    2.727

 PERFORMANCE PARAMETERS

 Ae/At                     1.00000   4.0000
 CSTAR, M/SEC               1143.9   1143.9
 CF                         0.6978   1.4374
 Ivac, M/SEC                1430.0   1814.5
 Isp, M/SEC                  798.2   1644.2

 MASS FRACTIONS

 *CO             0.00011   *CO2            0.16599   HO2             0.00001
 H2O             0.05739   *NO             0.00636   NO2             0.00005
 *N2             0.60052   *O              0.00004   *OH             0.00068
 *O2             0.16883

  * THERMODYNAMIC PROPERTIES FITTED TO 20000.K

 NOTE. WEIGHT FRACTION OF FUEL IN TOTAL FUELS AND OF OXIDANT IN TOTAL OXIDANTS

           THEORETICAL ROCKET PERFORMANCE ASSUMING FROZEN COMPOSITION

 Pin =   220.4 PSIA
 CASE = _______________

             REACTANT                    WT FRACTION      ENERGY      TEMP
                                          (SEE NOTE)     KJ/KG-MOL      K  
 FUEL        paraffin                     1.0000000  -1860600.000    298.150
 OXIDANT     N2O                          1.0000000         0.000      0.000

 O/F=   18.30000  %FUEL=  5.181347  R,EQ.RATIO= 0.499373  PHI,EQ.RATIO= 0.499373

                 CHAMBER   THROAT     EXIT
 Pinf/P            1.0000   1.8105   26.861
 P, BAR            15.199   8.3947  0.56584
 T, K             2021.21  1787.64   992.80
 RHO, KG/CU M    2.6654 0 1.6645 0 2.0202-1
 H, KJ/KG         -96.234  -414.82 -1448.00
 U, KJ/KG         -666.47  -919.16 -1728.10
 G, KJ/KG        -17187.3 -15530.8 -9842.97
 S, KJ/(KG)(K)     8.4558   8.4558   8.4558

 M, (1/n)          29.471   29.471   29.471
 Cp, KJ/(KG)(K)    1.3741   1.3531   1.2283
 GAMMAs            1.2584   1.2634   1.2982
 SON VEL,M/SEC      847.1    798.2    603.0
 MACH NUMBER        0.000    1.000    2.727

 PERFORMANCE PARAMETERS

 Ae/At                      1.0000   4.0000
 CSTAR, M/SEC               1143.9   1143.9
 CF                         0.6978   1.4374
 Ivac, M/SEC                1430.0   1814.6
 Isp, M/SEC                  798.2   1644.2

 MASS FRACTIONS

 *CO             0.00011   *CO2            0.16600   HO2             0.00001
 H2O             0.05740   *NO             0.00637   NO2             0.00005
 *N2             0.60051   *O              0.00004   *OH             0.00067
 *O2             0.16883

  * THERMODYNAMIC PROPERTIES FITTED TO 20000.K

 NOTE. WEIGHT FRACTION OF FUEL IN TOTAL FUELS AND OF OXIDANT IN TOTAL OXIDANTS

           THEORETICAL ROCKET PERFORMANCE ASSUMING FROZEN COMPOSITION

 Pin =   235.1 PSIA
 CASE = _______________

             REACTANT                    WT FRACTION      ENERGY      TEMP
                                          (SEE NOTE)     KJ/KG-MOL      K  
 FUEL        paraffin                     1.0000000  -1860600.000    298.150
 OXIDANT     N2O                          1.0000000         0.000      0.000

 O/F=   18.30000  %FUEL=  5.181347  R,EQ.RATIO= 0.499373  PHI,EQ.RATIO= 0.499373

                 CHAMBER   THROAT     EXIT
 Pinf/P            1.0000   1.8105   26.860
 P, BAR            16.212   8.9543  0.60357
 T, K             2021.32  1787.74   992.87
 RHO, KG/CU M    2.8429 0 1.7754 0 2.1548-1
 H, KJ/KG         -96.234  -414.84 -1448.07
 U, KJ/KG         -666.49  -919.20 -1728.18
 G, KJ/KG        -17151.4 -15499.1 -9825.55
 S, KJ/(KG)(K)     8.4376   8.4376   8.4376

 M, (1/n)          29.471   29.471   29.471
 Cp, KJ/(KG)(K)    1.3741   1.3531   1.2284
 GAMMAs            1.2584   1.2634   1.2982
 SON VEL,M/SEC      847.1    798.3    603.0
 MACH NUMBER        0.000    1.000    2.727

 PERFORMANCE PARAMETERS

 Ae/At                     1.00000   4.0000
 CSTAR, M/SEC               1143.9   1143.9
 CF                         0.6978   1.4374
 Ivac, M/SEC                1430.1   1814.6
 Isp, M/SEC                  798.3   1644.3

 MASS FRACTIONS

 *CO             0.00010   *CO2            0.16600   HO2             0.00001
 H2O             0.05740   *NO             0.00637   NO2             0.00006
 *N2             0.60051   *O              0.00004   *OH             0.00066
 *O2             0.16883

  * THERMODYNAMIC PROPERTIES FITTED TO 20000.K

 NOTE. WEIGHT FRACTION OF FUEL IN TOTAL FUELS AND OF OXIDANT IN TOTAL OXIDANTS

           THEORETICAL ROCKET PERFORMANCE ASSUMING FROZEN COMPOSITION

 Pin =   249.8 PSIA
 CASE = _______________

             REACTANT                    WT FRACTION      ENERGY      TEMP
                                          (SEE NOTE)     KJ/KG-MOL      K  
 FUEL        paraffin                     1.0000000  -1860600.000    298.150
 OXIDANT     N2O                          1.0000000         0.000      0.000

 O/F=   18.30000  %FUEL=  5.181347  R,EQ.RATIO= 0.499373  PHI,EQ.RATIO= 0.499373

                 CHAMBER   THROAT     EXIT
 Pinf/P            1.0000   1.8105   26.860
 P, BAR            17.225   9.5140  0.64130
 T, K             2021.43  1787.83   992.94
 RHO, KG/CU M    3.0205 0 1.8863 0 2.2893-1
 H, KJ/KG         -96.234  -414.85 -1448.13
 U, KJ/KG         -666.52  -919.23 -1728.25
 G, KJ/KG        -17117.7 -15469.3 -9809.17
 S, KJ/(KG)(K)     8.4205   8.4205   8.4205

 M, (1/n)          29.472   29.472   29.472
 Cp, KJ/(KG)(K)    1.3741   1.3531   1.2284
 GAMMAs            1.2583   1.2634   1.2981
 SON VEL,M/SEC      847.1    798.3    603.0
 MACH NUMBER        0.000    1.000    2.727

 PERFORMANCE PARAMETERS

 Ae/At                      1.0000   4.0000
 CSTAR, M/SEC               1144.0   1144.0
 CF                         0.6978   1.4374
 Ivac, M/SEC                1430.1   1814.7
 Isp, M/SEC                  798.3   1644.3

 MASS FRACTIONS

 *CO             0.00010   *CO2            0.16601   HO2             0.00001
 H2O             0.05741   *NO             0.00637   NO2             0.00006
 *N2             0.60051   *O              0.00004   *OH             0.00065
 *O2             0.16884

  * THERMODYNAMIC PROPERTIES FITTED TO 20000.K

 NOTE. WEIGHT FRACTION OF FUEL IN TOTAL FUELS AND OF OXIDANT IN TOTAL OXIDANTS

           THEORETICAL ROCKET PERFORMANCE ASSUMING FROZEN COMPOSITION

 Pin =   264.5 PSIA
 CASE = _______________

             REACTANT                    WT FRACTION      ENERGY      TEMP
                                          (SEE NOTE)     KJ/KG-MOL      K  
 FUEL        paraffin                     1.0000000  -1860600.000    298.150
 OXIDANT     N2O                          1.0000000         0.000      0.000

 O/F=   18.30000  %FUEL=  5.181347  R,EQ.RATIO= 0.499373  PHI,EQ.RATIO= 0.499373

                 CHAMBER   THROAT     EXIT
 Pinf/P            1.0000   1.8105   26.860
 P, BAR            18.238   10.074  0.67903
 T, K             2021.52  1787.92   993.00
 RHO, KG/CU M    3.1980 0 1.9971 0 2.4239-1
 H, KJ/KG         -96.234  -414.86 -1448.18
 U, KJ/KG         -666.54  -919.27 -1728.33
 G, KJ/KG        -17085.9 -15441.2 -9793.72
 S, KJ/(KG)(K)     8.4044   8.4044   8.4044

 M, (1/n)          29.472   29.472   29.472
 Cp, KJ/(KG)(K)    1.3741   1.3531   1.2284
 GAMMAs            1.2583   1.2634   1.2981
 SON VEL,M/SEC      847.1    798.3    603.0
 MACH NUMBER        0.000    1.000    2.727

 PERFORMANCE PARAMETERS

 Ae/At                      1.0000   4.0000
 CSTAR, M/SEC               1144.0   1144.0
 CF                         0.6978   1.4374
 Ivac, M/SEC                1430.1   1814.7
 Isp, M/SEC                  798.3   1644.4

 MASS FRACTIONS

 *CO             0.00010   *CO2            0.16601   HO2             0.00001
 H2O             0.05742   *NO             0.00637   NO2             0.00006
 *N2             0.60051   *O              0.00004   *OH             0.00064
 *O2             0.16884

  * THERMODYNAMIC PROPERTIES FITTED TO 20000.K

 NOTE. WEIGHT FRACTION OF FUEL IN TOTAL FUELS AND OF OXIDANT IN TOTAL OXIDANTS

           THEORETICAL ROCKET PERFORMANCE ASSUMING FROZEN COMPOSITION

 Pin =   279.2 PSIA
 CASE = _______________

             REACTANT                    WT FRACTION      ENERGY      TEMP
                                          (SEE NOTE)     KJ/KG-MOL      K  
 FUEL        paraffin                     1.0000000  -1860600.000    298.150
 OXIDANT     N2O                          1.0000000         0.000      0.000

 O/F=   18.30000  %FUEL=  5.181347  R,EQ.RATIO= 0.499373  PHI,EQ.RATIO= 0.499373

                 CHAMBER   THROAT     EXIT
 Pinf/P            1.0000   1.8105   26.859
 P, BAR            19.252   10.633  0.71676
 T, K             2021.61  1788.00   993.05
 RHO, KG/CU M    3.3756 0 2.1080 0 2.5584-1
 H, KJ/KG         -96.234  -414.87 -1448.24
 U, KJ/KG         -666.56  -919.30 -1728.39
 G, KJ/KG        -17055.8 -15414.6 -9779.09
 S, KJ/(KG)(K)     8.3891   8.3891   8.3891

 M, (1/n)          29.472   29.472   29.472
 Cp, KJ/(KG)(K)    1.3741   1.3531   1.2284
 GAMMAs            1.2583   1.2634   1.2981
 SON VEL,M/SEC      847.1    798.3    603.1
 MACH NUMBER        0.000    1.000    2.727

 PERFORMANCE PARAMETERS

 Ae/At                      1.0000   4.0000
 CSTAR, M/SEC               1144.0   1144.0
 CF                         0.6978   1.4374
 Ivac, M/SEC                1430.2   1814.8
 Isp, M/SEC                  798.3   1644.4

 MASS FRACTIONS

 *CO             0.00010   *CO2            0.16602   HO2             0.00001
 H2O             0.05742   *NO             0.00637   NO2             0.00006
 *N2             0.60051   *O              0.00004   *OH             0.00064
 *O2             0.16884

  * THERMODYNAMIC PROPERTIES FITTED TO 20000.K

 NOTE. WEIGHT FRACTION OF FUEL IN TOTAL FUELS AND OF OXIDANT IN TOTAL OXIDANTS

           THEORETICAL ROCKET PERFORMANCE ASSUMING FROZEN COMPOSITION

 Pin =   293.9 PSIA
 CASE = _______________

             REACTANT                    WT FRACTION      ENERGY      TEMP
                                          (SEE NOTE)     KJ/KG-MOL      K  
 FUEL        paraffin                     1.0000000  -1860600.000    298.150
 OXIDANT     N2O                          1.0000000         0.000      0.000

 O/F=   18.30000  %FUEL=  5.181347  R,EQ.RATIO= 0.499373  PHI,EQ.RATIO= 0.499373

                 CHAMBER   THROAT     EXIT
 Pinf/P            1.0000   1.8105   26.859
 P, BAR            20.265   11.193  0.75449
 T, K             2021.69  1788.08   993.10
 RHO, KG/CU M    3.5531 0 2.2189 0 2.6930-1
 H, KJ/KG         -96.234  -414.88 -1448.28
 U, KJ/KG         -666.58  -919.32 -1728.45
 G, KJ/KG        -17027.2 -15389.4 -9765.20
 S, KJ/(KG)(K)     8.3747   8.3747   8.3747

 M, (1/n)          29.472   29.472   29.472
 Cp, KJ/(KG)(K)    1.3741   1.3531   1.2284
 GAMMAs            1.2583   1.2634   1.2981
 SON VEL,M/SEC      847.2    798.3    603.1
 MACH NUMBER        0.000    1.000    2.727

 PERFORMANCE PARAMETERS

 Ae/At                      1.0000   4.0000
 CSTAR, M/SEC               1144.0   1144.0
 CF                         0.6978   1.4374
 Ivac, M/SEC                1430.2   1814.8
 Isp, M/SEC                  798.3   1644.4

 MASS FRACTIONS

 *CO             0.00009   *CO2            0.16602   HO2             0.00001
 H2O             0.05742   *NO             0.00637   NO2             0.00006
 *N2             0.60051   *O              0.00004   *OH             0.00063
 *O2             0.16884

  * THERMODYNAMIC PROPERTIES FITTED TO 20000.K

 NOTE. WEIGHT FRACTION OF FUEL IN TOTAL FUELS AND OF OXIDANT IN TOTAL OXIDANTS

           THEORETICAL ROCKET PERFORMANCE ASSUMING FROZEN COMPOSITION

 Pin =   308.6 PSIA
 CASE = _______________

             REACTANT                    WT FRACTION      ENERGY      TEMP
                                          (SEE NOTE)     KJ/KG-MOL      K  
 FUEL        paraffin                     1.0000000  -1860600.000    298.150
 OXIDANT     N2O                          1.0000000         0.000      0.000

 O/F=   18.30000  %FUEL=  5.181347  R,EQ.RATIO= 0.499373  PHI,EQ.RATIO= 0.499373

                 CHAMBER   THROAT     EXIT
 Pinf/P            1.0000   1.8105   26.859
 P, BAR            21.278   11.753  0.79223
 T, K             2021.76  1788.15   993.15
 RHO, KG/CU M    3.7307 0 2.3298 0 2.8276-1
 H, KJ/KG         -96.234  -414.89 -1448.33
 U, KJ/KG         -666.60  -919.35 -1728.51
 G, KJ/KG        -17000.0 -15365.4 -9751.98
 S, KJ/(KG)(K)     8.3609   8.3609   8.3609

 M, (1/n)          29.472   29.472   29.472
 Cp, KJ/(KG)(K)    1.3742   1.3532   1.2284
 GAMMAs            1.2583   1.2634   1.2981
 SON VEL,M/SEC      847.2    798.3    603.1
 MACH NUMBER        0.000    1.000    2.727

 PERFORMANCE PARAMETERS

 Ae/At                      1.0000   4.0000
 CSTAR, M/SEC               1144.0   1144.0
 CF                         0.6978   1.4374
 Ivac, M/SEC                1430.2   1814.8
 Isp, M/SEC                  798.3   1644.4

 MASS FRACTIONS

 *CO             0.00009   *CO2            0.16602   HO2             0.00001
 H2O             0.05743   *NO             0.00638   NO2             0.00007
 *N2             0.60051   *O              0.00004   *OH             0.00062
 *O2             0.16884

  * THERMODYNAMIC PROPERTIES FITTED TO 20000.K

 NOTE. WEIGHT FRACTION OF FUEL IN TOTAL FUELS AND OF OXIDANT IN TOTAL OXIDANTS

           THEORETICAL ROCKET PERFORMANCE ASSUMING FROZEN COMPOSITION

 Pin =   323.3 PSIA
 CASE = _______________

             REACTANT                    WT FRACTION      ENERGY      TEMP
                                          (SEE NOTE)     KJ/KG-MOL      K  
 FUEL        paraffin                     1.0000000  -1860600.000    298.150
 OXIDANT     N2O                          1.0000000         0.000      0.000

 O/F=   18.30000  %FUEL=  5.181347  R,EQ.RATIO= 0.499373  PHI,EQ.RATIO= 0.499373

                 CHAMBER   THROAT     EXIT
 Pinf/P            1.0000   1.8105   26.859
 P, BAR            22.291   12.312  0.82996
 T, K             2021.83  1788.21   993.20
 RHO, KG/CU M    3.9082 0 2.4406 0 2.9621-1
 H, KJ/KG         -96.234  -414.90 -1448.37
 U, KJ/KG         -666.61  -919.37 -1728.56
 G, KJ/KG        -16974.1 -15342.5 -9739.37
 S, KJ/(KG)(K)     8.3478   8.3478   8.3478

 M, (1/n)          29.473   29.473   29.473
 Cp, KJ/(KG)(K)    1.3742   1.3532   1.2284
 GAMMAs            1.2583   1.2634   1.2981
 SON VEL,M/SEC      847.2    798.3    603.1
 MACH NUMBER        0.000    1.000    2.727

 PERFORMANCE PARAMETERS

 Ae/At                      1.0000   4.0000
 CSTAR, M/SEC               1144.1   1144.1
 CF                         0.6978   1.4374
 Ivac, M/SEC                1430.2   1814.9
 Isp, M/SEC                  798.3   1644.5

 MASS FRACTIONS

 *CO             0.00009   *CO2            0.16603   HO2             0.00001
 H2O             0.05743   *NO             0.00638   NO2             0.00007
 *N2             0.60051   *O              0.00004   *OH             0.00061
 *O2             0.16884

  * THERMODYNAMIC PROPERTIES FITTED TO 20000.K

 NOTE. WEIGHT FRACTION OF FUEL IN TOTAL FUELS AND OF OXIDANT IN TOTAL OXIDANTS

           THEORETICAL ROCKET PERFORMANCE ASSUMING FROZEN COMPOSITION

 Pin =   338.0 PSIA
 CASE = _______________

             REACTANT                    WT FRACTION      ENERGY      TEMP
                                          (SEE NOTE)     KJ/KG-MOL      K  
 FUEL        paraffin                     1.0000000  -1860600.000    298.150
 OXIDANT     N2O                          1.0000000         0.000      0.000

 O/F=   18.30000  %FUEL=  5.181347  R,EQ.RATIO= 0.499373  PHI,EQ.RATIO= 0.499373

                 CHAMBER   THROAT     EXIT
 Pinf/P            1.0000   1.8105   26.858
 P, BAR            23.305   12.872  0.86769
 T, K             2021.90  1788.27   993.24
 RHO, KG/CU M    4.0857 0 2.5515 0 3.0967-1
 H, KJ/KG         -96.234  -414.91 -1448.41
 U, KJ/KG         -666.63  -919.40 -1728.61
 G, KJ/KG        -16949.3 -15320.6 -9727.31
 S, KJ/(KG)(K)     8.3352   8.3352   8.3352

 M, (1/n)          29.473   29.473   29.473
 Cp, KJ/(KG)(K)    1.3742   1.3532   1.2284
 GAMMAs            1.2583   1.2634   1.2981
 SON VEL,M/SEC      847.2    798.4    603.1
 MACH NUMBER        0.000    1.000    2.727

 PERFORMANCE PARAMETERS

 Ae/At                      1.0000   4.0000
 CSTAR, M/SEC               1144.1   1144.1
 CF                         0.6978   1.4374
 Ivac, M/SEC                1430.3   1814.9
 Isp, M/SEC                  798.3   1644.5

 MASS FRACTIONS

 *CO             0.00009   *CO2            0.16603   HO2             0.00001
 H2O             0.05744   *NO             0.00638   NO2             0.00007
 *N2             0.60050   *O              0.00004   *OH             0.00061
 *O2             0.16884

  * THERMODYNAMIC PROPERTIES FITTED TO 20000.K

 NOTE. WEIGHT FRACTION OF FUEL IN TOTAL FUELS AND OF OXIDANT IN TOTAL OXIDANTS

           THEORETICAL ROCKET PERFORMANCE ASSUMING FROZEN COMPOSITION

 Pin =   352.7 PSIA
 CASE = _______________

             REACTANT                    WT FRACTION      ENERGY      TEMP
                                          (SEE NOTE)     KJ/KG-MOL      K  
 FUEL        paraffin                     1.0000000  -1860600.000    298.150
 OXIDANT     N2O                          1.0000000         0.000      0.000

 O/F=   18.30000  %FUEL=  5.181347  R,EQ.RATIO= 0.499373  PHI,EQ.RATIO= 0.499373

                 CHAMBER   THROAT     EXIT
 Pinf/P            1.0000   1.8105   26.858
 P, BAR            24.318   13.432  0.90542
 T, K             2021.96  1788.33   993.28
 RHO, KG/CU M    4.2633 0 2.6624 0 3.2312-1
 H, KJ/KG         -96.234  -414.92 -1448.45
 U, KJ/KG         -666.64  -919.42 -1728.66
 G, KJ/KG        -16925.5 -15299.6 -9715.75
 S, KJ/(KG)(K)     8.3232   8.3232   8.3232

 M, (1/n)          29.473   29.473   29.473
 Cp, KJ/(KG)(K)    1.3742   1.3532   1.2285
 GAMMAs            1.2583   1.2634   1.2981
 SON VEL,M/SEC      847.2    798.4    603.1
 MACH NUMBER        0.000    1.000    2.727

 PERFORMANCE PARAMETERS

 Ae/At                      1.0000   4.0000
 CSTAR, M/SEC               1144.1   1144.1
 CF                         0.6978   1.4374
 Ivac, M/SEC                1430.3   1814.9
 Isp, M/SEC                  798.4   1644.5

 MASS FRACTIONS

 *CO             0.00009   *CO2            0.16603   HO2             0.00001
 H2O             0.05744   *NO             0.00638   NO2             0.00007
 *N2             0.60050   *O              0.00003   *OH             0.00060
 *O2             0.16884

  * THERMODYNAMIC PROPERTIES FITTED TO 20000.K

 NOTE. WEIGHT FRACTION OF FUEL IN TOTAL FUELS AND OF OXIDANT IN TOTAL OXIDANTS

           THEORETICAL ROCKET PERFORMANCE ASSUMING FROZEN COMPOSITION

 Pin =    14.7 PSIA
 CASE = _______________

             REACTANT                    WT FRACTION      ENERGY      TEMP
                                          (SEE NOTE)     KJ/KG-MOL      K  
 FUEL        paraffin                     1.0000000  -1860600.000    298.150
 OXIDANT     N2O                          1.0000000         0.000      0.000

 O/F=   18.50000  %FUEL=  5.128205  R,EQ.RATIO= 0.493974  PHI,EQ.RATIO= 0.493974

                 CHAMBER   THROAT     EXIT
 Pinf/P            1.0000   1.8111   26.924
 P, BAR            1.0132  0.55945  0.03763
 T, K             2000.15  1768.26   979.65
 RHO, KG/CU M    1.7947-1 1.1208-1 1.3609-2
 H, KJ/KG         -95.247  -410.80 -1433.04
 U, KJ/KG         -659.84  -909.94 -1709.57
 G, KJ/KG        -18513.0 -16693.3 -10453.9
 S, KJ/(KG)(K)     9.2082   9.2082   9.2082

 M, (1/n)          29.455   29.455   29.455
 Cp, KJ/(KG)(K)    1.3710   1.3499   1.2243
 GAMMAs            1.2593   1.2644   1.2997
 SON VEL,M/SEC      843.2    794.4    599.5
 MACH NUMBER        0.000    1.000    2.729

 PERFORMANCE PARAMETERS

 Ae/At                     1.00000   4.0000
 CSTAR, M/SEC               1137.9   1137.9
 CF                         0.6981   1.4374
 Ivac, M/SEC                1422.7   1804.8
 Isp, M/SEC                  794.4   1635.7

 MASS FRACTIONS

 *CO             0.00035   *CO2            0.16392   H2O             0.05650
 *NO             0.00605   NO2             0.00001   *N2             0.60101
 *O              0.00014   *OH             0.00119   *O2             0.17081

  * THERMODYNAMIC PROPERTIES FITTED TO 20000.K

 NOTE. WEIGHT FRACTION OF FUEL IN TOTAL FUELS AND OF OXIDANT IN TOTAL OXIDANTS

           THEORETICAL ROCKET PERFORMANCE ASSUMING FROZEN COMPOSITION

 Pin =    29.4 PSIA
 CASE = _______________

             REACTANT                    WT FRACTION      ENERGY      TEMP
                                          (SEE NOTE)     KJ/KG-MOL      K  
 FUEL        paraffin                     1.0000000  -1860600.000    298.150
 OXIDANT     N2O                          1.0000000         0.000      0.000

 O/F=   18.50000  %FUEL=  5.128205  R,EQ.RATIO= 0.493974  PHI,EQ.RATIO= 0.493974

                 CHAMBER   THROAT     EXIT
 Pinf/P            1.0000   1.8111   26.916
 P, BAR            2.0265   1.1190  0.07529
 T, K             2002.59  1770.51   981.19
 RHO, KG/CU M    3.5856-1 2.2393-1 2.7188-2
 H, KJ/KG         -95.247  -411.12 -1434.51
 U, KJ/KG         -660.43  -910.80 -1711.43
 G, KJ/KG        -18143.7 -16368.0 -10277.6
 S, KJ/(KG)(K)     9.0126   9.0126   9.0126

 M, (1/n)          29.461   29.461   29.461
 Cp, KJ/(KG)(K)    1.3713   1.3501   1.2246
 GAMMAs            1.2591   1.2643   1.2995
 SON VEL,M/SEC      843.6    794.8    599.9
 MACH NUMBER        0.000    1.000    2.728

 PERFORMANCE PARAMETERS

 Ae/At                      1.0000   4.0000
 CSTAR, M/SEC               1138.6   1138.6
 CF                         0.6981   1.4374
 Ivac, M/SEC                1423.5   1805.8
 Isp, M/SEC                  794.8   1636.6

 MASS FRACTIONS

 *CO             0.00025   *CO2            0.16407   H2O             0.05661
 *NO             0.00609   NO2             0.00002   *N2             0.60099
 *O              0.00010   *OH             0.00102   *O2             0.17084

  * THERMODYNAMIC PROPERTIES FITTED TO 20000.K

 NOTE. WEIGHT FRACTION OF FUEL IN TOTAL FUELS AND OF OXIDANT IN TOTAL OXIDANTS

           THEORETICAL ROCKET PERFORMANCE ASSUMING FROZEN COMPOSITION

 Pin =    44.1 PSIA
 CASE = _______________

             REACTANT                    WT FRACTION      ENERGY      TEMP
                                          (SEE NOTE)     KJ/KG-MOL      K  
 FUEL        paraffin                     1.0000000  -1860600.000    298.150
 OXIDANT     N2O                          1.0000000         0.000      0.000

 O/F=   18.50000  %FUEL=  5.128205  R,EQ.RATIO= 0.493974  PHI,EQ.RATIO= 0.493974

                 CHAMBER   THROAT     EXIT
 Pinf/P            1.0000   1.8110   26.913
 P, BAR            3.0397   1.6785  0.11295
 T, K             2003.77  1771.61   981.94
 RHO, KG/CU M    5.3757-1 3.3573-1 4.0761-2
 H, KJ/KG         -95.247  -411.27 -1435.22
 U, KJ/KG         -660.71  -911.21 -1712.33
 G, KJ/KG        -17925.1 -16175.3 -10172.7
 S, KJ/(KG)(K)     8.8981   8.8981   8.8981

 M, (1/n)          29.463   29.463   29.463
 Cp, KJ/(KG)(K)    1.3714   1.3502   1.2248
 GAMMAs            1.2591   1.2642   1.2994
 SON VEL,M/SEC      843.8    795.0    600.1
 MACH NUMBER        0.000    1.000    2.728

 PERFORMANCE PARAMETERS

 Ae/At                      1.0000   4.0000
 CSTAR, M/SEC               1138.9   1138.9
 CF                         0.6981   1.4374
 Ivac, M/SEC                1423.9   1806.3
 Isp, M/SEC                  795.0   1637.1

 MASS FRACTIONS

 *CO             0.00021   *CO2            0.16414   H2O             0.05666
 *NO             0.00611   NO2             0.00002   *N2             0.60098
 *O              0.00009   *OH             0.00092   *O2             0.17086

  * THERMODYNAMIC PROPERTIES FITTED TO 20000.K

 NOTE. WEIGHT FRACTION OF FUEL IN TOTAL FUELS AND OF OXIDANT IN TOTAL OXIDANTS

           THEORETICAL ROCKET PERFORMANCE ASSUMING FROZEN COMPOSITION

 Pin =    58.8 PSIA
 CASE = _______________

             REACTANT                    WT FRACTION      ENERGY      TEMP
                                          (SEE NOTE)     KJ/KG-MOL      K  
 FUEL        paraffin                     1.0000000  -1860600.000    298.150
 OXIDANT     N2O                          1.0000000         0.000      0.000

 O/F=   18.50000  %FUEL=  5.128205  R,EQ.RATIO= 0.493974  PHI,EQ.RATIO= 0.493974

                 CHAMBER   THROAT     EXIT
 Pinf/P            1.0000   1.8110   26.910
 P, BAR            4.0530   2.2380  0.15061
 T, K             2004.52  1772.29   982.41
 RHO, KG/CU M    7.1653-1 4.4750-1 5.4329-2
 H, KJ/KG         -95.247  -411.36 -1435.67
 U, KJ/KG         -660.89  -911.48 -1712.89
 G, KJ/KG        -17769.0 -16037.6 -10097.6
 S, KJ/(KG)(K)     8.8170   8.8170   8.8170

 M, (1/n)          29.465   29.465   29.465
 Cp, KJ/(KG)(K)    1.3714   1.3503   1.2249
 GAMMAs            1.2591   1.2642   1.2993
 SON VEL,M/SEC      843.9    795.1    600.2
 MACH NUMBER        0.000    1.000    2.728

 PERFORMANCE PARAMETERS

 Ae/At                      1.0000   4.0000
 CSTAR, M/SEC               1139.1   1139.1
 CF                         0.6981   1.4374
 Ivac, M/SEC                1424.1   1806.6
 Isp, M/SEC                  795.1   1637.3

 MASS FRACTIONS

 *CO             0.00018   *CO2            0.16418   H2O             0.05670
 *NO             0.00612   NO2             0.00003   *N2             0.60098
 *O              0.00007   *OH             0.00086   *O2             0.17087

  * THERMODYNAMIC PROPERTIES FITTED TO 20000.K

 NOTE. WEIGHT FRACTION OF FUEL IN TOTAL FUELS AND OF OXIDANT IN TOTAL OXIDANTS

           THEORETICAL ROCKET PERFORMANCE ASSUMING FROZEN COMPOSITION

 Pin =    73.5 PSIA
 CASE = _______________

             REACTANT                    WT FRACTION      ENERGY      TEMP
                                          (SEE NOTE)     KJ/KG-MOL      K  
 FUEL        paraffin                     1.0000000  -1860600.000    298.150
 OXIDANT     N2O                          1.0000000         0.000      0.000

 O/F=   18.50000  %FUEL=  5.128205  R,EQ.RATIO= 0.493974  PHI,EQ.RATIO= 0.493974

                 CHAMBER   THROAT     EXIT
 Pinf/P            1.0000   1.8110   26.909
 P, BAR            5.0663   2.7975  0.18828
 T, K             2005.05  1772.79   982.75
 RHO, KG/CU M    8.9546-1 5.5924-1 6.7895-2
 H, KJ/KG         -95.247  -411.43 -1435.99
 U, KJ/KG         -661.02  -911.66 -1713.29
 G, KJ/KG        -17647.5 -15930.4 -10039.0
 S, KJ/(KG)(K)     8.7540   8.7540   8.7540

 M, (1/n)          29.466   29.466   29.466
 Cp, KJ/(KG)(K)    1.3715   1.3504   1.2250
 GAMMAs            1.2590   1.2642   1.2993
 SON VEL,M/SEC      844.0    795.2    600.2
 MACH NUMBER        0.000    1.000    2.728

 PERFORMANCE PARAMETERS

 Ae/At                      1.0000   4.0000
 CSTAR, M/SEC               1139.2   1139.2
 CF                         0.6980   1.4374
 Ivac, M/SEC                1424.3   1806.9
 Isp, M/SEC                  795.2   1637.5

 MASS FRACTIONS

 *CO             0.00016   *CO2            0.16421   H2O             0.05672
 *NO             0.00613   NO2             0.00003   *N2             0.60097
 *O              0.00007   *OH             0.00082   *O2             0.17088

  * THERMODYNAMIC PROPERTIES FITTED TO 20000.K

 NOTE. WEIGHT FRACTION OF FUEL IN TOTAL FUELS AND OF OXIDANT IN TOTAL OXIDANTS

           THEORETICAL ROCKET PERFORMANCE ASSUMING FROZEN COMPOSITION

 Pin =    88.2 PSIA
 CASE = _______________

             REACTANT                    WT FRACTION      ENERGY      TEMP
                                          (SEE NOTE)     KJ/KG-MOL      K  
 FUEL        paraffin                     1.0000000  -1860600.000    298.150
 OXIDANT     N2O                          1.0000000         0.000      0.000

 O/F=   18.50000  %FUEL=  5.128205  R,EQ.RATIO= 0.493974  PHI,EQ.RATIO= 0.493974

                 CHAMBER   THROAT     EXIT
 Pinf/P            1.0000   1.8110   26.907
 P, BAR            6.0795   3.3570  0.22594
 T, K             2005.46  1773.16   983.01
 RHO, KG/CU M    1.0744 0 6.7098-1 8.1459-2
 H, KJ/KG         -95.247  -411.48 -1436.23
 U, KJ/KG         -661.12  -911.81 -1713.60
 G, KJ/KG        -17547.8 -15842.5 -9990.88
 S, KJ/(KG)(K)     8.7025   8.7025   8.7025

 M, (1/n)          29.467   29.467   29.467
 Cp, KJ/(KG)(K)    1.3715   1.3504   1.2251
 GAMMAs            1.2590   1.2641   1.2993
 SON VEL,M/SEC      844.1    795.3    600.3
 MACH NUMBER        0.000    1.000    2.728

 PERFORMANCE PARAMETERS

 Ae/At                      1.0000   4.0000
 CSTAR, M/SEC               1139.3   1139.3
 CF                         0.6980   1.4374
 Ivac, M/SEC                1424.4   1807.0
 Isp, M/SEC                  795.3   1637.7

 MASS FRACTIONS

 *CO             0.00015   *CO2            0.16423   H2O             0.05674
 *NO             0.00614   NO2             0.00003   *N2             0.60097
 *O              0.00006   *OH             0.00078   *O2             0.17089

  * THERMODYNAMIC PROPERTIES FITTED TO 20000.K

 NOTE. WEIGHT FRACTION OF FUEL IN TOTAL FUELS AND OF OXIDANT IN TOTAL OXIDANTS

           THEORETICAL ROCKET PERFORMANCE ASSUMING FROZEN COMPOSITION

 Pin =   102.9 PSIA
 CASE = _______________

             REACTANT                    WT FRACTION      ENERGY      TEMP
                                          (SEE NOTE)     KJ/KG-MOL      K  
 FUEL        paraffin                     1.0000000  -1860600.000    298.150
 OXIDANT     N2O                          1.0000000         0.000      0.000

 O/F=   18.50000  %FUEL=  5.128205  R,EQ.RATIO= 0.493974  PHI,EQ.RATIO= 0.493974

                 CHAMBER   THROAT     EXIT
 Pinf/P            1.0000   1.8110   26.906
 P, BAR            7.0927   3.9166  0.26361
 T, K             2005.78  1773.46   983.21
 RHO, KG/CU M    1.2533 0 7.8270-1 9.5022-2
 H, KJ/KG         -95.247  -411.52 -1436.43
 U, KJ/KG         -661.19  -911.92 -1713.85
 G, KJ/KG        -17463.4 -15768.0 -9950.09
 S, KJ/(KG)(K)     8.6590   8.6590   8.6590

 M, (1/n)          29.468   29.468   29.468
 Cp, KJ/(KG)(K)    1.3715   1.3504   1.2251
 GAMMAs            1.2590   1.2641   1.2992
 SON VEL,M/SEC      844.1    795.3    600.4
 MACH NUMBER        0.000    1.000    2.728

 PERFORMANCE PARAMETERS

 Ae/At                      1.0000   4.0000
 CSTAR, M/SEC               1139.4   1139.4
 CF                         0.6980   1.4374
 Ivac, M/SEC                1424.5   1807.2
 Isp, M/SEC                  795.3   1637.8

 MASS FRACTIONS

 *CO             0.00014   *CO2            0.16425   H2O             0.05676
 *NO             0.00614   NO2             0.00004   *N2             0.60096
 *O              0.00006   *OH             0.00076   *O2             0.17089

  * THERMODYNAMIC PROPERTIES FITTED TO 20000.K

 NOTE. WEIGHT FRACTION OF FUEL IN TOTAL FUELS AND OF OXIDANT IN TOTAL OXIDANTS

           THEORETICAL ROCKET PERFORMANCE ASSUMING FROZEN COMPOSITION

 Pin =   117.6 PSIA
 CASE = _______________

             REACTANT                    WT FRACTION      ENERGY      TEMP
                                          (SEE NOTE)     KJ/KG-MOL      K  
 FUEL        paraffin                     1.0000000  -1860600.000    298.150
 OXIDANT     N2O                          1.0000000         0.000      0.000

 O/F=   18.50000  %FUEL=  5.128205  R,EQ.RATIO= 0.493974  PHI,EQ.RATIO= 0.493974

                 CHAMBER   THROAT     EXIT
 Pinf/P            1.0000   1.8109   26.905
 P, BAR            8.1060   4.4761  0.30128
 T, K             2006.05  1773.70   983.38
 RHO, KG/CU M    1.4321 0 8.9441-1 1.0858-1
 H, KJ/KG         -95.247  -411.56 -1436.59
 U, KJ/KG         -661.26  -912.01 -1714.05
 G, KJ/KG        -17390.1 -15703.3 -9914.66
 S, KJ/(KG)(K)     8.6214   8.6214   8.6214

 M, (1/n)          29.468   29.468   29.468
 Cp, KJ/(KG)(K)    1.3716   1.3505   1.2251
 GAMMAs            1.2590   1.2641   1.2992
 SON VEL,M/SEC      844.2    795.4    600.4
 MACH NUMBER        0.000    1.000    2.728

 PERFORMANCE PARAMETERS

 Ae/At                     1.00000   4.0000
 CSTAR, M/SEC               1139.5   1139.5
 CF                         0.6980   1.4374
 Ivac, M/SEC                1424.6   1807.3
 Isp, M/SEC                  795.4   1637.9

 MASS FRACTIONS

 *CO             0.00013   *CO2            0.16426   H2O             0.05677
 *NO             0.00615   NO2             0.00004   *N2             0.60096
 *O              0.00005   *OH             0.00073   *O2             0.17090

  * THERMODYNAMIC PROPERTIES FITTED TO 20000.K

 NOTE. WEIGHT FRACTION OF FUEL IN TOTAL FUELS AND OF OXIDANT IN TOTAL OXIDANTS

           THEORETICAL ROCKET PERFORMANCE ASSUMING FROZEN COMPOSITION

 Pin =   132.3 PSIA
 CASE = _______________

             REACTANT                    WT FRACTION      ENERGY      TEMP
                                          (SEE NOTE)     KJ/KG-MOL      K  
 FUEL        paraffin                     1.0000000  -1860600.000    298.150
 OXIDANT     N2O                          1.0000000         0.000      0.000

 O/F=   18.50000  %FUEL=  5.128205  R,EQ.RATIO= 0.493974  PHI,EQ.RATIO= 0.493974

                 CHAMBER   THROAT     EXIT
 Pinf/P            1.0000   1.8109   26.905
 P, BAR            9.1192   5.0356  0.33895
 T, K             2006.28  1773.91   983.52
 RHO, KG/CU M    1.6110 0 1.0061 0 1.2214-1
 H, KJ/KG         -95.247  -411.59 -1436.72
 U, KJ/KG         -661.31  -912.09 -1714.22
 G, KJ/KG        -17325.4 -15646.2 -9883.35
 S, KJ/(KG)(K)     8.5881   8.5881   8.5881

 M, (1/n)          29.469   29.469   29.469
 Cp, KJ/(KG)(K)    1.3716   1.3505   1.2252
 GAMMAs            1.2590   1.2641   1.2992
 SON VEL,M/SEC      844.2    795.4    600.4
 MACH NUMBER        0.000    1.000    2.728

 PERFORMANCE PARAMETERS

 Ae/At                      1.0000   4.0000
 CSTAR, M/SEC               1139.5   1139.5
 CF                         0.6980   1.4374
 Ivac, M/SEC                1424.7   1807.4
 Isp, M/SEC                  795.4   1638.0

 MASS FRACTIONS

 *CO             0.00012   *CO2            0.16427   H2O             0.05678
 *NO             0.00615   NO2             0.00004   *N2             0.60096
 *O              0.00005   *OH             0.00071   *O2             0.17090

  * THERMODYNAMIC PROPERTIES FITTED TO 20000.K

 NOTE. WEIGHT FRACTION OF FUEL IN TOTAL FUELS AND OF OXIDANT IN TOTAL OXIDANTS

           THEORETICAL ROCKET PERFORMANCE ASSUMING FROZEN COMPOSITION

 Pin =   147.0 PSIA
 CASE = _______________

             REACTANT                    WT FRACTION      ENERGY      TEMP
                                          (SEE NOTE)     KJ/KG-MOL      K  
 FUEL        paraffin                     1.0000000  -1860600.000    298.150
 OXIDANT     N2O                          1.0000000         0.000      0.000

 O/F=   18.50000  %FUEL=  5.128205  R,EQ.RATIO= 0.493974  PHI,EQ.RATIO= 0.493974

                 CHAMBER   THROAT     EXIT
 Pinf/P            1.0000   1.8109   26.904
 P, BAR            10.133   5.5952  0.37662
 T, K             2006.47  1774.09   983.65
 RHO, KG/CU M    1.7898 0 1.1178 0 1.3570-1
 H, KJ/KG         -95.247  -411.61 -1436.84
 U, KJ/KG         -661.36  -912.16 -1714.37
 G, KJ/KG        -17267.5 -15595.0 -9855.28
 S, KJ/(KG)(K)     8.5584   8.5584   8.5584

 M, (1/n)          29.469   29.469   29.469
 Cp, KJ/(KG)(K)    1.3716   1.3505   1.2252
 GAMMAs            1.2590   1.2641   1.2992
 SON VEL,M/SEC      844.2    795.4    600.5
 MACH NUMBER        0.000    1.000    2.728

 PERFORMANCE PARAMETERS

 Ae/At                      1.0000   4.0000
 CSTAR, M/SEC               1139.6   1139.6
 CF                         0.6980   1.4374
 Ivac, M/SEC                1424.7   1807.5
 Isp, M/SEC                  795.4   1638.0

 MASS FRACTIONS

 *CO             0.00012   *CO2            0.16428   H2O             0.05680
 *NO             0.00616   NO2             0.00004   *N2             0.60095
 *O              0.00005   *OH             0.00069   *O2             0.17090

  * THERMODYNAMIC PROPERTIES FITTED TO 20000.K

 NOTE. WEIGHT FRACTION OF FUEL IN TOTAL FUELS AND OF OXIDANT IN TOTAL OXIDANTS

           THEORETICAL ROCKET PERFORMANCE ASSUMING FROZEN COMPOSITION

 Pin =   161.7 PSIA
 CASE = _______________

             REACTANT                    WT FRACTION      ENERGY      TEMP
                                          (SEE NOTE)     KJ/KG-MOL      K  
 FUEL        paraffin                     1.0000000  -1860600.000    298.150
 OXIDANT     N2O                          1.0000000         0.000      0.000

 O/F=   18.50000  %FUEL=  5.128205  R,EQ.RATIO= 0.493974  PHI,EQ.RATIO= 0.493974

                 CHAMBER   THROAT     EXIT
 Pinf/P            1.0000   1.8109   26.903
 P, BAR            11.146   6.1547  0.41429
 T, K             2006.64  1774.25   983.75
 RHO, KG/CU M    1.9687 0 1.2295 0 1.4926-1
 H, KJ/KG         -95.247  -411.63 -1436.94
 U, KJ/KG         -661.40  -912.22 -1714.50
 G, KJ/KG        -17214.9 -15548.7 -9829.85
 S, KJ/(KG)(K)     8.5315   8.5315   8.5315

 M, (1/n)          29.470   29.470   29.470
 Cp, KJ/(KG)(K)    1.3716   1.3505   1.2252
 GAMMAs            1.2590   1.2641   1.2992
 SON VEL,M/SEC      844.3    795.5    600.5
 MACH NUMBER        0.000    1.000    2.728

 PERFORMANCE PARAMETERS

 Ae/At                      1.0000   4.0000
 CSTAR, M/SEC               1139.6   1139.6
 CF                         0.6980   1.4374
 Ivac, M/SEC                1424.8   1807.5
 Isp, M/SEC                  795.5   1638.1

 MASS FRACTIONS

 *CO             0.00011   *CO2            0.16429   H2O             0.05680
 *NO             0.00616   NO2             0.00005   *N2             0.60095
 *O              0.00005   *OH             0.00068   *O2             0.17091

  * THERMODYNAMIC PROPERTIES FITTED TO 20000.K

 NOTE. WEIGHT FRACTION OF FUEL IN TOTAL FUELS AND OF OXIDANT IN TOTAL OXIDANTS

           THEORETICAL ROCKET PERFORMANCE ASSUMING FROZEN COMPOSITION

 Pin =   176.4 PSIA
 CASE = _______________

             REACTANT                    WT FRACTION      ENERGY      TEMP
                                          (SEE NOTE)     KJ/KG-MOL      K  
 FUEL        paraffin                     1.0000000  -1860600.000    298.150
 OXIDANT     N2O                          1.0000000         0.000      0.000

 O/F=   18.50000  %FUEL=  5.128205  R,EQ.RATIO= 0.493974  PHI,EQ.RATIO= 0.493974

                 CHAMBER   THROAT     EXIT
 Pinf/P            1.0000   1.8109   26.903
 P, BAR            12.159   6.7142  0.45196
 T, K             2006.79  1774.39   983.85
 RHO, KG/CU M    2.1475 0 1.3412 0 1.6282-1
 H, KJ/KG         -95.247  -411.65 -1437.03
 U, KJ/KG         -661.44  -912.27 -1714.61
 G, KJ/KG        -17167.0 -15506.3 -9806.61
 S, KJ/(KG)(K)     8.5070   8.5070   8.5070

 M, (1/n)          29.470   29.470   29.470
 Cp, KJ/(KG)(K)    1.3716   1.3505   1.2253
 GAMMAs            1.2590   1.2641   1.2992
 SON VEL,M/SEC      844.3    795.5    600.5
 MACH NUMBER        0.000    1.000    2.728

 PERFORMANCE PARAMETERS

 Ae/At                      1.0000   4.0000
 CSTAR, M/SEC               1139.6   1139.6
 CF                         0.6980   1.4374
 Ivac, M/SEC                1424.8   1807.6
 Isp, M/SEC                  795.5   1638.2

 MASS FRACTIONS

 *CO             0.00011   *CO2            0.16430   H2O             0.05681
 *NO             0.00616   NO2             0.00005   *N2             0.60095
 *O              0.00004   *OH             0.00066   *O2             0.17091

  * THERMODYNAMIC PROPERTIES FITTED TO 20000.K

 NOTE. WEIGHT FRACTION OF FUEL IN TOTAL FUELS AND OF OXIDANT IN TOTAL OXIDANTS

           THEORETICAL ROCKET PERFORMANCE ASSUMING FROZEN COMPOSITION

 Pin =   191.0 PSIA
 CASE = _______________

             REACTANT                    WT FRACTION      ENERGY      TEMP
                                          (SEE NOTE)     KJ/KG-MOL      K  
 FUEL        paraffin                     1.0000000  -1860600.000    298.150
 OXIDANT     N2O                          1.0000000         0.000      0.000

 O/F=   18.50000  %FUEL=  5.128205  R,EQ.RATIO= 0.493974  PHI,EQ.RATIO= 0.493974

                 CHAMBER   THROAT     EXIT
 Pinf/P            1.0000   1.8109   26.902
 P, BAR            13.172   7.2738  0.48963
 T, K             2006.93  1774.51   983.93
 RHO, KG/CU M    2.3263 0 1.4529 0 1.7638-1
 H, KJ/KG         -95.247  -411.67 -1437.11
 U, KJ/KG         -661.47  -912.32 -1714.71
 G, KJ/KG        -17122.8 -15467.3 -9785.19
 S, KJ/(KG)(K)     8.4844   8.4844   8.4844

 M, (1/n)          29.470   29.470   29.470
 Cp, KJ/(KG)(K)    1.3717   1.3505   1.2253
 GAMMAs            1.2590   1.2641   1.2991
 SON VEL,M/SEC      844.3    795.5    600.5
 MACH NUMBER        0.000    1.000    2.728

 PERFORMANCE PARAMETERS

 Ae/At                      1.0000   4.0000
 CSTAR, M/SEC               1139.7   1139.7
 CF                         0.6980   1.4374
 Ivac, M/SEC                1424.9   1807.7
 Isp, M/SEC                  795.5   1638.2

 MASS FRACTIONS

 *CO             0.00010   *CO2            0.16430   HO2             0.00001
 H2O             0.05682   *NO             0.00616   NO2             0.00005
 *N2             0.60095   *O              0.00004   *OH             0.00065
 *O2             0.17091

  * THERMODYNAMIC PROPERTIES FITTED TO 20000.K

 NOTE. WEIGHT FRACTION OF FUEL IN TOTAL FUELS AND OF OXIDANT IN TOTAL OXIDANTS

           THEORETICAL ROCKET PERFORMANCE ASSUMING FROZEN COMPOSITION

 Pin =   205.7 PSIA
 CASE = _______________

             REACTANT                    WT FRACTION      ENERGY      TEMP
                                          (SEE NOTE)     KJ/KG-MOL      K  
 FUEL        paraffin                     1.0000000  -1860600.000    298.150
 OXIDANT     N2O                          1.0000000         0.000      0.000

 O/F=   18.50000  %FUEL=  5.128205  R,EQ.RATIO= 0.493974  PHI,EQ.RATIO= 0.493974

                 CHAMBER   THROAT     EXIT
 Pinf/P            1.0000   1.8109   26.902
 P, BAR            14.185   7.8333  0.52730
 T, K             2007.05  1774.63   984.01
 RHO, KG/CU M    2.5052 0 1.5645 0 1.8994-1
 H, KJ/KG         -95.247  -411.69 -1437.18
 U, KJ/KG         -661.50  -912.36 -1714.80
 G, KJ/KG        -17081.9 -15431.2 -9765.35
 S, KJ/(KG)(K)     8.4635   8.4635   8.4635

 M, (1/n)          29.470   29.470   29.470
 Cp, KJ/(KG)(K)    1.3717   1.3506   1.2253
 GAMMAs            1.2589   1.2641   1.2991
 SON VEL,M/SEC      844.3    795.5    600.6
 MACH NUMBER        0.000    1.000    2.728

 PERFORMANCE PARAMETERS

 Ae/At                      1.0000   4.0000
 CSTAR, M/SEC               1139.7   1139.7
 CF                         0.6980   1.4374
 Ivac, M/SEC                1424.9   1807.7
 Isp, M/SEC                  795.5   1638.3

 MASS FRACTIONS

 *CO             0.00010   *CO2            0.16431   HO2             0.00001
 H2O             0.05683   *NO             0.00617   NO2             0.00005
 *N2             0.60095   *O              0.00004   *OH             0.00064
 *O2             0.17091

  * THERMODYNAMIC PROPERTIES FITTED TO 20000.K

 NOTE. WEIGHT FRACTION OF FUEL IN TOTAL FUELS AND OF OXIDANT IN TOTAL OXIDANTS

           THEORETICAL ROCKET PERFORMANCE ASSUMING FROZEN COMPOSITION

 Pin =   220.4 PSIA
 CASE = _______________

             REACTANT                    WT FRACTION      ENERGY      TEMP
                                          (SEE NOTE)     KJ/KG-MOL      K  
 FUEL        paraffin                     1.0000000  -1860600.000    298.150
 OXIDANT     N2O                          1.0000000         0.000      0.000

 O/F=   18.50000  %FUEL=  5.128205  R,EQ.RATIO= 0.493974  PHI,EQ.RATIO= 0.493974

                 CHAMBER   THROAT     EXIT
 Pinf/P            1.0000   1.8109   26.902
 P, BAR            15.199   8.3929  0.56497
 T, K             2007.16  1774.73   984.08
 RHO, KG/CU M    2.6840 0 1.6762 0 2.0349-1
 H, KJ/KG         -95.247  -411.70 -1437.25
 U, KJ/KG         -661.52  -912.40 -1714.89
 G, KJ/KG        -17043.7 -15397.5 -9746.85
 S, KJ/(KG)(K)     8.4440   8.4440   8.4440

 M, (1/n)          29.471   29.471   29.471
 Cp, KJ/(KG)(K)    1.3717   1.3506   1.2253
 GAMMAs            1.2589   1.2641   1.2991
 SON VEL,M/SEC      844.3    795.6    600.6
 MACH NUMBER        0.000    1.000    2.728

 PERFORMANCE PARAMETERS

 Ae/At                     1.00000   4.0000
 CSTAR, M/SEC               1139.7   1139.7
 CF                         0.6980   1.4374
 Ivac, M/SEC                1424.9   1807.8
 Isp, M/SEC                  795.6   1638.3

 MASS FRACTIONS

 *CO             0.00009   *CO2            0.16431   HO2             0.00001
 H2O             0.05683   *NO             0.00617   NO2             0.00005
 *N2             0.60095   *O              0.00004   *OH             0.00063
 *O2             0.17091

  * THERMODYNAMIC PROPERTIES FITTED TO 20000.K

 NOTE. WEIGHT FRACTION OF FUEL IN TOTAL FUELS AND OF OXIDANT IN TOTAL OXIDANTS

           THEORETICAL ROCKET PERFORMANCE ASSUMING FROZEN COMPOSITION

 Pin =   235.1 PSIA
 CASE = _______________

             REACTANT                    WT FRACTION      ENERGY      TEMP
                                          (SEE NOTE)     KJ/KG-MOL      K  
 FUEL        paraffin                     1.0000000  -1860600.000    298.150
 OXIDANT     N2O                          1.0000000         0.000      0.000

 O/F=   18.50000  %FUEL=  5.128205  R,EQ.RATIO= 0.493974  PHI,EQ.RATIO= 0.493974

                 CHAMBER   THROAT     EXIT
 Pinf/P            1.0000   1.8109   26.901
 P, BAR            16.212   8.9524  0.60265
 T, K             2007.26  1774.82   984.15
 RHO, KG/CU M    2.8628 0 1.7879 0 2.1705-1
 H, KJ/KG         -95.247  -411.71 -1437.31
 U, KJ/KG         -661.55  -912.44 -1714.96
 G, KJ/KG        -17008.0 -15366.0 -9729.54
 S, KJ/(KG)(K)     8.4258   8.4258   8.4258

 M, (1/n)          29.471   29.471   29.471
 Cp, KJ/(KG)(K)    1.3717   1.3506   1.2253
 GAMMAs            1.2589   1.2641   1.2991
 SON VEL,M/SEC      844.4    795.6    600.6
 MACH NUMBER        0.000    1.000    2.728

 PERFORMANCE PARAMETERS

 Ae/At                      1.0000   4.0000
 CSTAR, M/SEC               1139.8   1139.8
 CF                         0.6980   1.4374
 Ivac, M/SEC                1425.0   1807.8
 Isp, M/SEC                  795.6   1638.3

 MASS FRACTIONS

 *CO             0.00009   *CO2            0.16432   HO2             0.00001
 H2O             0.05684   *NO             0.00617   NO2             0.00006
 *N2             0.60094   *O              0.00004   *OH             0.00062
 *O2             0.17091

  * THERMODYNAMIC PROPERTIES FITTED TO 20000.K

 NOTE. WEIGHT FRACTION OF FUEL IN TOTAL FUELS AND OF OXIDANT IN TOTAL OXIDANTS

           THEORETICAL ROCKET PERFORMANCE ASSUMING FROZEN COMPOSITION

 Pin =   249.8 PSIA
 CASE = _______________

             REACTANT                    WT FRACTION      ENERGY      TEMP
                                          (SEE NOTE)     KJ/KG-MOL      K  
 FUEL        paraffin                     1.0000000  -1860600.000    298.150
 OXIDANT     N2O                          1.0000000         0.000      0.000

 O/F=   18.50000  %FUEL=  5.128205  R,EQ.RATIO= 0.493974  PHI,EQ.RATIO= 0.493974

                 CHAMBER   THROAT     EXIT
 Pinf/P            1.0000   1.8109   26.901
 P, BAR            17.225   9.5119  0.64032
 T, K             2007.35  1774.91   984.21
 RHO, KG/CU M    3.0416 0 1.8996 0 2.3061-1
 H, KJ/KG         -95.247  -411.73 -1437.37
 U, KJ/KG         -661.57  -912.47 -1715.03
 G, KJ/KG        -16974.5 -15336.4 -9713.26
 S, KJ/(KG)(K)     8.4087   8.4087   8.4087

 M, (1/n)          29.471   29.471   29.471
 Cp, KJ/(KG)(K)    1.3717   1.3506   1.2253
 GAMMAs            1.2589   1.2640   1.2991
 SON VEL,M/SEC      844.4    795.6    600.6
 MACH NUMBER        0.000    1.000    2.728

 PERFORMANCE PARAMETERS

 Ae/At                      1.0000   4.0000
 CSTAR, M/SEC               1139.8   1139.8
 CF                         0.6980   1.4374
 Ivac, M/SEC                1425.0   1807.8
 Isp, M/SEC                  795.6   1638.4

 MASS FRACTIONS

 *CO             0.00009   *CO2            0.16432   HO2             0.00001
 H2O             0.05684   *NO             0.00617   NO2             0.00006
 *N2             0.60094   *O              0.00004   *OH             0.00061
 *O2             0.17092

  * THERMODYNAMIC PROPERTIES FITTED TO 20000.K

 NOTE. WEIGHT FRACTION OF FUEL IN TOTAL FUELS AND OF OXIDANT IN TOTAL OXIDANTS

           THEORETICAL ROCKET PERFORMANCE ASSUMING FROZEN COMPOSITION

 Pin =   264.5 PSIA
 CASE = _______________

             REACTANT                    WT FRACTION      ENERGY      TEMP
                                          (SEE NOTE)     KJ/KG-MOL      K  
 FUEL        paraffin                     1.0000000  -1860600.000    298.150
 OXIDANT     N2O                          1.0000000         0.000      0.000

 O/F=   18.50000  %FUEL=  5.128205  R,EQ.RATIO= 0.493974  PHI,EQ.RATIO= 0.493974

                 CHAMBER   THROAT     EXIT
 Pinf/P            1.0000   1.8109   26.901
 P, BAR            18.238   10.071  0.67799
 T, K             2007.44  1774.99   984.26
 RHO, KG/CU M    3.2204 0 2.0112 0 2.4416-1
 H, KJ/KG         -95.247  -411.74 -1437.42
 U, KJ/KG         -661.59  -912.50 -1715.10
 G, KJ/KG        -16942.8 -15308.5 -9697.90
 S, KJ/(KG)(K)     8.3926   8.3926   8.3926

 M, (1/n)          29.471   29.471   29.471
 Cp, KJ/(KG)(K)    1.3717   1.3506   1.2254
 GAMMAs            1.2589   1.2640   1.2991
 SON VEL,M/SEC      844.4    795.6    600.6
 MACH NUMBER        0.000    1.000    2.728

 PERFORMANCE PARAMETERS

 Ae/At                      1.0000   4.0000
 CSTAR, M/SEC               1139.8   1139.8
 CF                         0.6980   1.4374
 Ivac, M/SEC                1425.0   1807.9
 Isp, M/SEC                  795.6   1638.4

 MASS FRACTIONS

 *CO             0.00009   *CO2            0.16433   HO2             0.00001
 H2O             0.05685   *NO             0.00617   NO2             0.00006
 *N2             0.60094   *O              0.00004   *OH             0.00060
 *O2             0.17092

  * THERMODYNAMIC PROPERTIES FITTED TO 20000.K

 NOTE. WEIGHT FRACTION OF FUEL IN TOTAL FUELS AND OF OXIDANT IN TOTAL OXIDANTS

           THEORETICAL ROCKET PERFORMANCE ASSUMING FROZEN COMPOSITION

 Pin =   279.2 PSIA
 CASE = _______________

             REACTANT                    WT FRACTION      ENERGY      TEMP
                                          (SEE NOTE)     KJ/KG-MOL      K  
 FUEL        paraffin                     1.0000000  -1860600.000    298.150
 OXIDANT     N2O                          1.0000000         0.000      0.000

 O/F=   18.50000  %FUEL=  5.128205  R,EQ.RATIO= 0.493974  PHI,EQ.RATIO= 0.493974

                 CHAMBER   THROAT     EXIT
 Pinf/P            1.0000   1.8109   26.901
 P, BAR            19.252   10.631  0.71566
 T, K             2007.52  1775.06   984.31
 RHO, KG/CU M    3.3992 0 2.1229 0 2.5772-1
 H, KJ/KG         -95.247  -411.75 -1437.46
 U, KJ/KG         -661.61  -912.53 -1715.16
 G, KJ/KG        -16912.9 -15282.0 -9683.36
 S, KJ/(KG)(K)     8.3773   8.3773   8.3773

 M, (1/n)          29.472   29.472   29.472
 Cp, KJ/(KG)(K)    1.3717   1.3506   1.2254
 GAMMAs            1.2589   1.2640   1.2991
 SON VEL,M/SEC      844.4    795.6    600.6
 MACH NUMBER        0.000    1.000    2.728

 PERFORMANCE PARAMETERS

 Ae/At                      1.0000   4.0000
 CSTAR, M/SEC               1139.8   1139.8
 CF                         0.6980   1.4374
 Ivac, M/SEC                1425.0   1807.9
 Isp, M/SEC                  795.6   1638.4

 MASS FRACTIONS

 *CO             0.00008   *CO2            0.16433   HO2             0.00001
 H2O             0.05685   *NO             0.00617   NO2             0.00006
 *N2             0.60094   *O              0.00003   *OH             0.00059
 *O2             0.17092

  * THERMODYNAMIC PROPERTIES FITTED TO 20000.K

 NOTE. WEIGHT FRACTION OF FUEL IN TOTAL FUELS AND OF OXIDANT IN TOTAL OXIDANTS

           THEORETICAL ROCKET PERFORMANCE ASSUMING FROZEN COMPOSITION

 Pin =   293.9 PSIA
 CASE = _______________

             REACTANT                    WT FRACTION      ENERGY      TEMP
                                          (SEE NOTE)     KJ/KG-MOL      K  
 FUEL        paraffin                     1.0000000  -1860600.000    298.150
 OXIDANT     N2O                          1.0000000         0.000      0.000

 O/F=   18.50000  %FUEL=  5.128205  R,EQ.RATIO= 0.493974  PHI,EQ.RATIO= 0.493974

                 CHAMBER   THROAT     EXIT
 Pinf/P            1.0000   1.8109   26.900
 P, BAR            20.265   11.191  0.75334
 T, K             2007.60  1775.13   984.36
 RHO, KG/CU M    3.5780 0 2.2346 0 2.7127-1
 H, KJ/KG         -95.247  -411.76 -1437.51
 U, KJ/KG         -661.63  -912.55 -1715.21
 G, KJ/KG        -16884.5 -15256.9 -9669.56
 S, KJ/(KG)(K)     8.3629   8.3629   8.3629

 M, (1/n)          29.472   29.472   29.472
 Cp, KJ/(KG)(K)    1.3717   1.3506   1.2254
 GAMMAs            1.2589   1.2640   1.2991
 SON VEL,M/SEC      844.4    795.6    600.6
 MACH NUMBER        0.000    1.000    2.728

 PERFORMANCE PARAMETERS

 Ae/At                      1.0000   4.0000
 CSTAR, M/SEC               1139.9   1139.9
 CF                         0.6980   1.4374
 Ivac, M/SEC                1425.1   1807.9
 Isp, M/SEC                  795.6   1638.5

 MASS FRACTIONS

 *CO             0.00008   *CO2            0.16433   HO2             0.00001
 H2O             0.05686   *NO             0.00618   NO2             0.00006
 *N2             0.60094   *O              0.00003   *OH             0.00059
 *O2             0.17092

  * THERMODYNAMIC PROPERTIES FITTED TO 20000.K

 NOTE. WEIGHT FRACTION OF FUEL IN TOTAL FUELS AND OF OXIDANT IN TOTAL OXIDANTS

           THEORETICAL ROCKET PERFORMANCE ASSUMING FROZEN COMPOSITION

 Pin =   308.6 PSIA
 CASE = _______________

             REACTANT                    WT FRACTION      ENERGY      TEMP
                                          (SEE NOTE)     KJ/KG-MOL      K  
 FUEL        paraffin                     1.0000000  -1860600.000    298.150
 OXIDANT     N2O                          1.0000000         0.000      0.000

 O/F=   18.50000  %FUEL=  5.128205  R,EQ.RATIO= 0.493974  PHI,EQ.RATIO= 0.493974

                 CHAMBER   THROAT     EXIT
 Pinf/P            1.0000   1.8109   26.900
 P, BAR            21.278   11.750  0.79101
 T, K             2007.67  1775.19   984.40
 RHO, KG/CU M    3.7568 0 2.3462 0 2.8483-1
 H, KJ/KG         -95.247  -411.76 -1437.55
 U, KJ/KG         -661.64  -912.58 -1715.27
 G, KJ/KG        -16857.4 -15233.0 -9656.42
 S, KJ/(KG)(K)     8.3491   8.3491   8.3491

 M, (1/n)          29.472   29.472   29.472
 Cp, KJ/(KG)(K)    1.3717   1.3506   1.2254
 GAMMAs            1.2589   1.2640   1.2991
 SON VEL,M/SEC      844.4    795.6    600.6
 MACH NUMBER        0.000    1.000    2.728

 PERFORMANCE PARAMETERS

 Ae/At                      1.0000   4.0000
 CSTAR, M/SEC               1139.9   1139.9
 CF                         0.6980   1.4374
 Ivac, M/SEC                1425.1   1808.0
[...]
 HCN             0.00003   *H2             0.03307   H2O             0.02883
 NH3             0.00025   *N2             0.42410   C(gr)           0.12378

  * THERMODYNAMIC PROPERTIES FITTED TO 20000.K

 NOTE. WEIGHT FRACTION OF FUEL IN TOTAL FUELS AND OF OXIDANT IN TOTAL OXIDANTS

           THEORETICAL ROCKET PERFORMANCE ASSUMING FROZEN COMPOSITION

 Pin =   205.7 PSIA
 CASE = _______________

             REACTANT                    WT FRACTION      ENERGY      TEMP
                                          (SEE NOTE)     KJ/KG-MOL      K  
 FUEL        paraffin                     1.0000000  -1860600.000    298.150
 OXIDANT     N2O                          1.0000000         0.000      0.000

 O/F=    2.00000  %FUEL= 33.333333  R,EQ.RATIO= 4.569263  PHI,EQ.RATIO= 4.569263

                 CHAMBER   THROAT     EXIT
 Pinf/P            1.0000   1.8156   27.694
 P, BAR            14.185   7.8132  0.51222
 T, K             1193.08  1052.19   566.58
 RHO, KG/CU M    3.0381 0 1.8974 0 2.3101-1
 H, KJ/KG         -619.11  -880.86 -1722.79
 U, KJ/KG        -1086.03 -1292.65 -1944.53
 G, KJ/KG        -12494.3 -11353.7 -7362.13
 S, KJ/(KG)(K)     9.9534   9.9534   9.9534

 M, (1/n)          21.245   21.245   21.245
 MW, MOL WT        17.431   17.431   17.431
 Cp, KJ/(KG)(K)    1.8811   1.8338   1.6201
 GAMMAs            1.2627   1.2713   1.3185
 SON VEL,M/SEC      767.8    723.5    540.7
 MACH NUMBER        0.000    1.000    2.748

 PERFORMANCE PARAMETERS

 Ae/At                     1.00000   4.0000
 CSTAR, M/SEC               1033.3   1033.3
 CF                         0.7002   1.4379
 Ivac, M/SEC                1292.7   1635.0
 Isp, M/SEC                  723.5   1485.7

 MASS FRACTIONS

 CH4             0.02152   *CO             0.32988   *CO2            0.03837
 HCN             0.00004   *H2             0.03285   H2O             0.02930
 NH3             0.00026   *N2             0.42409   C(gr)           0.12369

  * THERMODYNAMIC PROPERTIES FITTED TO 20000.K

 NOTE. WEIGHT FRACTION OF FUEL IN TOTAL FUELS AND OF OXIDANT IN TOTAL OXIDANTS

           THEORETICAL ROCKET PERFORMANCE ASSUMING FROZEN COMPOSITION

 Pin =   220.4 PSIA
 CASE = _______________

             REACTANT                    WT FRACTION      ENERGY      TEMP
                                          (SEE NOTE)     KJ/KG-MOL      K  
 FUEL        paraffin                     1.0000000  -1860600.000    298.150
 OXIDANT     N2O                          1.0000000         0.000      0.000

 O/F=    2.00000  %FUEL= 33.333333  R,EQ.RATIO= 4.569263  PHI,EQ.RATIO= 4.569263

                 CHAMBER   THROAT     EXIT
 Pinf/P            1.0000   1.8151   27.655
 P, BAR            15.199   8.3734  0.54959
 T, K             1197.15  1056.11   569.53
 RHO, KG/CU M    3.2487 0 2.0288 0 2.4693-1
 H, KJ/KG         -619.11  -881.31 -1725.36
 U, KJ/KG        -1086.94 -1294.03 -1947.92
 G, KJ/KG        -12502.4 -11364.7 -7378.70
 S, KJ/(KG)(K)     9.9264   9.9264   9.9264

 M, (1/n)          21.276   21.276   21.276
 MW, MOL WT        17.454   17.454   17.454
 Cp, KJ/(KG)(K)    1.8823   1.8350   1.6205
 GAMMAs            1.2620   1.2706   1.3178
 SON VEL,M/SEC      768.4    724.2    541.6
 MACH NUMBER        0.000    1.000    2.747

 PERFORMANCE PARAMETERS

 Ae/At                      1.0000   4.0000
 CSTAR, M/SEC               1034.5   1034.5
 CF                         0.7000   1.4378
 Ivac, M/SEC                1294.1   1637.1
 Isp, M/SEC                  724.2   1487.4

 MASS FRACTIONS

 CH4             0.02211   *CO             0.32887   *CO2            0.03862
 HCN             0.00004   *H2             0.03265   H2O             0.02974
 NH3             0.00027   *N2             0.42408   C(gr)           0.12361

  * THERMODYNAMIC PROPERTIES FITTED TO 20000.K

 NOTE. WEIGHT FRACTION OF FUEL IN TOTAL FUELS AND OF OXIDANT IN TOTAL OXIDANTS

           THEORETICAL ROCKET PERFORMANCE ASSUMING FROZEN COMPOSITION

 Pin =   235.1 PSIA
 CASE = _______________

             REACTANT                    WT FRACTION      ENERGY      TEMP
                                          (SEE NOTE)     KJ/KG-MOL      K  
 FUEL        paraffin                     1.0000000  -1860600.000    298.150
 OXIDANT     N2O                          1.0000000         0.000      0.000

 O/F=    2.00000  %FUEL= 33.333333  R,EQ.RATIO= 4.569263  PHI,EQ.RATIO= 4.569263

                 CHAMBER   THROAT     EXIT
 Pinf/P            1.0000   1.8147   27.618
 P, BAR            16.212   8.9336  0.58701
 T, K             1200.98  1059.81   572.32
 RHO, KG/CU M    3.4590 0 2.1600 0 2.6282-1
 H, KJ/KG         -619.11  -881.73 -1727.76
 U, KJ/KG        -1087.80 -1295.33 -1951.11
 G, KJ/KG        -12510.2 -11375.0 -7394.39
 S, KJ/(KG)(K)     9.9012   9.9012   9.9012

 M, (1/n)          21.305   21.305   21.305
 MW, MOL WT        17.476   17.476   17.476
 Cp, KJ/(KG)(K)    1.8835   1.8361   1.6210
 GAMMAs            1.2613   1.2699   1.3171
 SON VEL,M/SEC      768.9    724.7    542.4
 MACH NUMBER        0.000    1.000    2.745

 PERFORMANCE PARAMETERS

 Ae/At                      1.0000   4.0000
 CSTAR, M/SEC               1035.6   1035.6
 CF                         0.6998   1.4378
 Ivac, M/SEC                1295.4   1639.1
 Isp, M/SEC                  724.7   1489.1

 MASS FRACTIONS

 CH4             0.02268   *CO             0.32793   *CO2            0.03886
 HCN             0.00004   *H2             0.03246   H2O             0.03015
 NH3             0.00028   *N2             0.42407   C(gr)           0.12352

  * THERMODYNAMIC PROPERTIES FITTED TO 20000.K

 NOTE. WEIGHT FRACTION OF FUEL IN TOTAL FUELS AND OF OXIDANT IN TOTAL OXIDANTS

           THEORETICAL ROCKET PERFORMANCE ASSUMING FROZEN COMPOSITION

 Pin =   249.8 PSIA
 CASE = _______________

             REACTANT                    WT FRACTION      ENERGY      TEMP
                                          (SEE NOTE)     KJ/KG-MOL      K  
 FUEL        paraffin                     1.0000000  -1860600.000    298.150
 OXIDANT     N2O                          1.0000000         0.000      0.000

 O/F=    2.00000  %FUEL= 33.333333  R,EQ.RATIO= 4.569263  PHI,EQ.RATIO= 4.569263

                 CHAMBER   THROAT     EXIT
 Pinf/P            1.0000   1.8143   27.583
 P, BAR            17.225   9.4940  0.62449
 T, K             1204.60  1063.30   574.97
 RHO, KG/CU M    3.6689 0 2.2909 0 2.7867-1
 H, KJ/KG         -619.11  -882.12 -1730.02
 U, KJ/KG        -1088.61 -1296.55 -1954.12
 G, KJ/KG        -12517.6 -11384.9 -7409.30
 S, KJ/(KG)(K)     9.8775   9.8775   9.8775

 M, (1/n)          21.333   21.333   21.333
 MW, MOL WT        17.497   17.497   17.497
 Cp, KJ/(KG)(K)    1.8847   1.8372   1.6214
 GAMMAs            1.2607   1.2693   1.3165
 SON VEL,M/SEC      769.4    725.3    543.2
 MACH NUMBER        0.000    1.000    2.744

 PERFORMANCE PARAMETERS

 Ae/At                      1.0000   4.0000
 CSTAR, M/SEC               1036.7   1036.7
 CF                         0.6996   1.4378
 Ivac, M/SEC                1296.7   1640.9
 Isp, M/SEC                  725.3   1490.6

 MASS FRACTIONS

 CH4             0.02322   *CO             0.32705   *CO2            0.03908
 HCN             0.00004   *H2             0.03228   H2O             0.03053
 NH3             0.00029   *N2             0.42406   C(gr)           0.12343

  * THERMODYNAMIC PROPERTIES FITTED TO 20000.K

 NOTE. WEIGHT FRACTION OF FUEL IN TOTAL FUELS AND OF OXIDANT IN TOTAL OXIDANTS

           THEORETICAL ROCKET PERFORMANCE ASSUMING FROZEN COMPOSITION

 Pin =   264.5 PSIA
 CASE = _______________

             REACTANT                    WT FRACTION      ENERGY      TEMP
                                          (SEE NOTE)     KJ/KG-MOL      K  
 FUEL        paraffin                     1.0000000  -1860600.000    298.150
 OXIDANT     N2O                          1.0000000         0.000      0.000

 O/F=    2.00000  %FUEL= 33.333333  R,EQ.RATIO= 4.569263  PHI,EQ.RATIO= 4.569263

                 CHAMBER   THROAT     EXIT
 Pinf/P            1.0000   1.8140   27.550
 P, BAR            18.238   10.055  0.66202
 T, K             1208.04  1066.63   577.49
 RHO, KG/CU M    3.8784 0 2.4216 0 2.9449-1
 H, KJ/KG         -619.11  -882.49 -1732.16
 U, KJ/KG        -1089.37 -1297.70 -1956.96
 G, KJ/KG        -12524.7 -11394.4 -7423.50
 S, KJ/(KG)(K)     9.8553   9.8553   9.8553

 M, (1/n)          21.359   21.359   21.359
 MW, MOL WT        17.517   17.517   17.517
 Cp, KJ/(KG)(K)    1.8857   1.8382   1.6218
 GAMMAs            1.2601   1.2687   1.3158
 SON VEL,M/SEC      769.8    725.8    543.9
 MACH NUMBER        0.000    1.000    2.743

 PERFORMANCE PARAMETERS

 Ae/At                      1.0000   4.0000
 CSTAR, M/SEC               1037.7   1037.7
 CF                         0.6994   1.4378
 Ivac, M/SEC                1297.9   1642.7
 Isp, M/SEC                  725.8   1492.0

 MASS FRACTIONS

 CH4             0.02374   *CO             0.32621   *CO2            0.03929
 HCN             0.00004   *H2             0.03211   H2O             0.03090
 NH3             0.00030   *N2             0.42405   C(gr)           0.12334

  * THERMODYNAMIC PROPERTIES FITTED TO 20000.K

 NOTE. WEIGHT FRACTION OF FUEL IN TOTAL FUELS AND OF OXIDANT IN TOTAL OXIDANTS

           THEORETICAL ROCKET PERFORMANCE ASSUMING FROZEN COMPOSITION

 Pin =   279.2 PSIA
 CASE = _______________

             REACTANT                    WT FRACTION      ENERGY      TEMP
                                          (SEE NOTE)     KJ/KG-MOL      K  
 FUEL        paraffin                     1.0000000  -1860600.000    298.150
 OXIDANT     N2O                          1.0000000         0.000      0.000

 O/F=    2.00000  %FUEL= 33.333333  R,EQ.RATIO= 4.569263  PHI,EQ.RATIO= 4.569263

                 CHAMBER   THROAT     EXIT
 Pinf/P            1.0000   1.8136   27.518
 P, BAR            19.252   10.615  0.69960
 T, K             1211.32  1069.79   579.90
 RHO, KG/CU M    4.0876 0 2.5520 0 3.1028-1
 H, KJ/KG         -619.11  -882.84 -1734.19
 U, KJ/KG        -1090.09 -1298.79 -1959.66
 G, KJ/KG        -12531.5 -11403.4 -7437.07
 S, KJ/(KG)(K)     9.8342   9.8342   9.8342

 M, (1/n)          21.384   21.384   21.384
 MW, MOL WT        17.536   17.536   17.536
 Cp, KJ/(KG)(K)    1.8867   1.8392   1.6222
 GAMMAs            1.2596   1.2681   1.3152
 SON VEL,M/SEC      770.2    726.3    544.6
 MACH NUMBER        0.000    1.000    2.742

 PERFORMANCE PARAMETERS

 Ae/At                      1.0000   4.0000
 CSTAR, M/SEC               1038.7   1038.7
 CF                         0.6992   1.4377
 Ivac, M/SEC                1299.0   1644.4
 Isp, M/SEC                  726.3   1493.4

 MASS FRACTIONS

 CH4             0.02423   *CO             0.32542   *CO2            0.03949
 HCN             0.00004   *H2             0.03194   H2O             0.03124
 NH3             0.00031   *N2             0.42404   C(gr)           0.12326

  * THERMODYNAMIC PROPERTIES FITTED TO 20000.K

 NOTE. WEIGHT FRACTION OF FUEL IN TOTAL FUELS AND OF OXIDANT IN TOTAL OXIDANTS

           THEORETICAL ROCKET PERFORMANCE ASSUMING FROZEN COMPOSITION

 Pin =   293.9 PSIA
 CASE = _______________

             REACTANT                    WT FRACTION      ENERGY      TEMP
                                          (SEE NOTE)     KJ/KG-MOL      K  
 FUEL        paraffin                     1.0000000  -1860600.000    298.150
 OXIDANT     N2O                          1.0000000         0.000      0.000

 O/F=    2.00000  %FUEL= 33.333333  R,EQ.RATIO= 4.569263  PHI,EQ.RATIO= 4.569263

                 CHAMBER   THROAT     EXIT
 Pinf/P            1.0000   1.8133   27.488
 P, BAR            20.265   11.176  0.73723
 T, K             1214.44  1072.81   582.21
 RHO, KG/CU M    4.2965 0 2.6823 0 3.2604-1
 H, KJ/KG         -619.11  -883.17 -1736.11
 U, KJ/KG        -1090.77 -1299.82 -1962.23
 G, KJ/KG        -12538.0 -11412.1 -7450.06
 S, KJ/(KG)(K)     9.8143   9.8143   9.8143

 M, (1/n)          21.408   21.408   21.408
 MW, MOL WT        17.554   17.554   17.554
 Cp, KJ/(KG)(K)    1.8877   1.8401   1.6226
 GAMMAs            1.2590   1.2675   1.3147
 SON VEL,M/SEC      770.6    726.7    545.2
 MACH NUMBER        0.000    1.000    2.741

 PERFORMANCE PARAMETERS

 Ae/At                      1.0000   4.0000
 CSTAR, M/SEC               1039.6   1039.6
 CF                         0.6990   1.4377
 Ivac, M/SEC                1300.1   1645.9
 Isp, M/SEC                  726.7   1494.7

 MASS FRACTIONS

 CH4             0.02471   *CO             0.32467   *CO2            0.03968
 HCN             0.00004   *H2             0.03178   H2O             0.03157
 NH3             0.00032   *N2             0.42403   C(gr)           0.12317

  * THERMODYNAMIC PROPERTIES FITTED TO 20000.K

 NOTE. WEIGHT FRACTION OF FUEL IN TOTAL FUELS AND OF OXIDANT IN TOTAL OXIDANTS

           THEORETICAL ROCKET PERFORMANCE ASSUMING FROZEN COMPOSITION

 Pin =   308.6 PSIA
 CASE = _______________

             REACTANT                    WT FRACTION      ENERGY      TEMP
                                          (SEE NOTE)     KJ/KG-MOL      K  
 FUEL        paraffin                     1.0000000  -1860600.000    298.150
 OXIDANT     N2O                          1.0000000         0.000      0.000

 O/F=    2.00000  %FUEL= 33.333333  R,EQ.RATIO= 4.569263  PHI,EQ.RATIO= 4.569263

                 CHAMBER   THROAT     EXIT
 Pinf/P            1.0000   1.8129   27.459
 P, BAR            21.278   11.737  0.77491
 T, K             1217.43  1075.70   584.42
 RHO, KG/CU M    4.5051 0 2.8124 0 3.4178-1
 H, KJ/KG         -619.11  -883.48 -1737.95
 U, KJ/KG        -1091.42 -1300.81 -1964.68
 G, KJ/KG        -12544.3 -11420.4 -7462.52
 S, KJ/(KG)(K)     9.7954   9.7954   9.7954

 M, (1/n)          21.432   21.432   21.432
 MW, MOL WT        17.572   17.572   17.572
 Cp, KJ/(KG)(K)    1.8887   1.8410   1.6230
 GAMMAs            1.2585   1.2670   1.3141
 SON VEL,M/SEC      771.0    727.2    545.8
 MACH NUMBER        0.000    1.000    2.740

 PERFORMANCE PARAMETERS

 Ae/At                      1.0000   4.0000
 CSTAR, M/SEC               1040.5   1040.5
 CF                         0.6989   1.4377
 Ivac, M/SEC                1301.1   1647.5
 Isp, M/SEC                  727.2   1495.9

 MASS FRACTIONS

 CH4             0.02517   *CO             0.32396   *CO2            0.03986
 HCN             0.00005   *H2             0.03163   H2O             0.03188
 NH3             0.00033   *N2             0.42402   C(gr)           0.12308

  * THERMODYNAMIC PROPERTIES FITTED TO 20000.K

 NOTE. WEIGHT FRACTION OF FUEL IN TOTAL FUELS AND OF OXIDANT IN TOTAL OXIDANTS

           THEORETICAL ROCKET PERFORMANCE ASSUMING FROZEN COMPOSITION

 Pin =   323.3 PSIA
 CASE = _______________

             REACTANT                    WT FRACTION      ENERGY      TEMP
                                          (SEE NOTE)     KJ/KG-MOL      K  
 FUEL        paraffin                     1.0000000  -1860600.000    298.150
 OXIDANT     N2O                          1.0000000         0.000      0.000

 O/F=    2.00000  %FUEL= 33.333333  R,EQ.RATIO= 4.569263  PHI,EQ.RATIO= 4.569263

                 CHAMBER   THROAT     EXIT
 Pinf/P            1.0000   1.8126   27.431
 P, BAR            22.291   12.298  0.81263
 T, K             1220.30  1078.48   586.54
 RHO, KG/CU M    4.7135 0 2.9423 0 3.5749-1
 H, KJ/KG         -619.11  -883.78 -1739.70
 U, KJ/KG        -1092.04 -1301.74 -1967.02
 G, KJ/KG        -12550.4 -11428.4 -7474.51
 S, KJ/(KG)(K)     9.7773   9.7773   9.7773

 M, (1/n)          21.454   21.454   21.454
 MW, MOL WT        17.589   17.589   17.589
 Cp, KJ/(KG)(K)    1.8896   1.8419   1.6233
 GAMMAs            1.2580   1.2665   1.3136
 SON VEL,M/SEC      771.3    727.6    546.4
 MACH NUMBER        0.000    1.000    2.740

 PERFORMANCE PARAMETERS

 Ae/At                      1.0000   4.0000
 CSTAR, M/SEC               1041.3   1041.3
 CF                         0.6987   1.4377
 Ivac, M/SEC                1302.0   1648.9
 Isp, M/SEC                  727.6   1497.1

 MASS FRACTIONS

 CH4             0.02561   *CO             0.32327   *CO2            0.04003
 HCN             0.00005   *H2             0.03149   H2O             0.03218
 NH3             0.00034   *N2             0.42402   C(gr)           0.12300

  * THERMODYNAMIC PROPERTIES FITTED TO 20000.K

 NOTE. WEIGHT FRACTION OF FUEL IN TOTAL FUELS AND OF OXIDANT IN TOTAL OXIDANTS

           THEORETICAL ROCKET PERFORMANCE ASSUMING FROZEN COMPOSITION

 Pin =   338.0 PSIA
 CASE = _______________

             REACTANT                    WT FRACTION      ENERGY      TEMP
                                          (SEE NOTE)     KJ/KG-MOL      K  
 FUEL        paraffin                     1.0000000  -1860600.000    298.150
 OXIDANT     N2O                          1.0000000         0.000      0.000

 O/F=    2.00000  %FUEL= 33.333333  R,EQ.RATIO= 4.569263  PHI,EQ.RATIO= 4.569263

                 CHAMBER   THROAT     EXIT
 Pinf/P            1.0000   1.8123   27.405
 P, BAR            23.305   12.859  0.85039
 T, K             1223.05  1081.14   588.59
 RHO, KG/CU M    4.9216 0 3.0721 0 3.7318-1
 H, KJ/KG         -619.11  -884.07 -1741.38
 U, KJ/KG        -1092.63 -1302.64 -1969.26
 G, KJ/KG        -12556.2 -11436.1 -7486.05
 S, KJ/(KG)(K)     9.7601   9.7601   9.7601

 M, (1/n)          21.475   21.475   21.475
 MW, MOL WT        17.606   17.606   17.606
 Cp, KJ/(KG)(K)    1.8904   1.8427   1.6237
 GAMMAs            1.2576   1.2660   1.3131
 SON VEL,M/SEC      771.7    728.0    547.0
 MACH NUMBER        0.000    1.000    2.739

 PERFORMANCE PARAMETERS

 Ae/At                      1.0000   4.0000
 CSTAR, M/SEC               1042.1   1042.1
 CF                         0.6985   1.4377
 Ivac, M/SEC                1303.0   1650.3
 Isp, M/SEC                  728.0   1498.2

 MASS FRACTIONS

 CH4             0.02603   *CO             0.32262   *CO2            0.04019
 HCN             0.00005   *H2             0.03135   H2O             0.03247
 NH3             0.00035   *N2             0.42401   C(gr)           0.12291

  * THERMODYNAMIC PROPERTIES FITTED TO 20000.K

 NOTE. WEIGHT FRACTION OF FUEL IN TOTAL FUELS AND OF OXIDANT IN TOTAL OXIDANTS

           THEORETICAL ROCKET PERFORMANCE ASSUMING FROZEN COMPOSITION

 Pin =   352.7 PSIA
 CASE = _______________

             REACTANT                    WT FRACTION      ENERGY      TEMP
                                          (SEE NOTE)     KJ/KG-MOL      K  
 FUEL        paraffin                     1.0000000  -1860600.000    298.150
 OXIDANT     N2O                          1.0000000         0.000      0.000

 O/F=    2.00000  %FUEL= 33.333333  R,EQ.RATIO= 4.569263  PHI,EQ.RATIO= 4.569263

                 CHAMBER   THROAT     EXIT
 Pinf/P            1.0000   1.8120   27.379
 P, BAR            24.318   13.420  0.88819
 T, K             1225.70  1083.70   590.56
 RHO, KG/CU M    5.1294 0 3.2017 0 3.8884-1
 H, KJ/KG         -619.11  -884.34 -1742.99
 U, KJ/KG        -1093.19 -1303.50 -1971.41
 G, KJ/KG        -12561.9 -11443.5 -7497.18
 S, KJ/(KG)(K)     9.7436   9.7436   9.7436

 M, (1/n)          21.496   21.496   21.496
 MW, MOL WT        17.622   17.622   17.622
 Cp, KJ/(KG)(K)    1.8912   1.8435   1.6240
 GAMMAs            1.2571   1.2655   1.3126
 SON VEL,M/SEC      772.0    728.3    547.6
 MACH NUMBER        0.000    1.000    2.738

 PERFORMANCE PARAMETERS

 Ae/At                      1.0000   4.0000
 CSTAR, M/SEC               1042.9   1042.9
 CF                         0.6984   1.4376
 Ivac, M/SEC                1303.8   1651.6
 Isp, M/SEC                  728.3   1499.3

 MASS FRACTIONS

 CH4             0.02644   *CO             0.32199   *CO2            0.04035
 HCN             0.00005   *H2             0.03121   H2O             0.03274
 NH3             0.00036   *N2             0.42400   C(gr)           0.12283

  * THERMODYNAMIC PROPERTIES FITTED TO 20000.K

 NOTE. WEIGHT FRACTION OF FUEL IN TOTAL FUELS AND OF OXIDANT IN TOTAL OXIDANTS